# Top-energy pose of compounds ranked according to the score (given in kcal/mol).
@<TRIPOS>MOLECULE
5281519_run_21.pdb
 39 39 0 0 0
SMALL
GASTEIGER

@<TRIPOS>ATOM
      1    C      110.7590  104.4500  126.4680 C.3     2  LIG2       -0.0275
      2    C      111.5630  105.7530  126.6680 C.2     2  LIG2       -0.0668
      3    C      109.2120  104.5310  126.6530 C.3     2  LIG2       -0.0283
      4    C      112.0840  106.3910  125.3610 C.3     2  LIG2       -0.0130
      5    C      108.4730  105.2300  125.5170 C.2     2  LIG2       -0.0762
      6    C      108.9070  107.9040  123.6170 C.3     2  LIG2       -0.0286
      7    C      107.6990  107.4580  124.4970 C.3     2  LIG2       -0.0308
      8    C      110.2410  107.8920  124.3680 C.2     2  LIG2       -0.0759
      9    C      111.8050  106.2700  127.9070 C.2     2  LIG2       -0.0762
     10    C      110.9720  106.7560  124.3970 C.2     2  LIG2       -0.0810
     11    C      108.0940  106.5210  125.6360 C.2     2  LIG2       -0.0847
     12    C      108.3240  104.4130  124.2390 C.3     2  LIG2       -0.0438
     13    C      110.5060  109.1190  125.2300 C.3     2  LIG2       -0.0438
     14    C      111.2910  105.6500  129.2050 C.3     2  LIG2       -0.0438
     15    C      112.6380  107.5210  128.1810 C.3     2  LIG2       -0.0438
     16    H      111.0000  104.0210  125.4950 H       2  LIG2        0.0313
     17    H      111.1490  103.7120  127.1690 H       2  LIG2        0.0313
     18    H      108.8020  103.5250  126.7480 H       2  LIG2        0.0313
     19    H      108.9780  105.0250  127.5960 H       2  LIG2        0.0313
     20    H      112.6730  107.2850  125.5330 H       2  LIG2        0.0352
     21    H      112.7680  105.6970  124.8720 H       2  LIG2        0.0352
     22    H      108.9850  107.2170  122.7730 H       2  LIG2        0.0313
     23    H      108.7300  108.8830  123.1700 H       2  LIG2        0.0313
     24    H      107.2430  108.3370  124.9560 H       2  LIG2        0.0310
     25    H      106.9150  107.0110  123.8840 H       2  LIG2        0.0310
     26    H      110.6560  105.9320  123.7750 H       2  LIG2        0.0575
     27    H      108.2720  107.0210  126.5780 H       2  LIG2        0.0572
     28    H      109.2850  104.0150  123.9120 H       2  LIG2        0.0274
     29    H      107.9110  104.9910  123.4140 H       2  LIG2        0.0274
     30    H      107.6510  103.5730  124.4150 H       2  LIG2        0.0274
     31    H      110.7490  109.9710  124.5950 H       2  LIG2        0.0274
     32    H      111.3320  108.9810  125.9250 H       2  LIG2        0.0274
     33    H      109.6240  109.3710  125.8190 H       2  LIG2        0.0274
     34    H      112.1250  105.4010  129.8620 H       2  LIG2        0.0274
     35    H      110.7160  104.7370  129.0720 H       2  LIG2        0.0274
     36    H      110.6480  106.3590  129.7250 H       2  LIG2        0.0274
     37    H      113.2050  107.4130  129.1060 H       2  LIG2        0.0274
     38    H      111.9810  108.3830  128.2970 H       2  LIG2        0.0274
     39    H      113.3700  107.7510  127.4100 H       2  LIG2        0.0274
@<TRIPOS>BOND
     1    22     6    1
     2    23     6    1
     3    29    12    1
     4     6     8    1
     5     6     7    1
     6    26    10    1
     7    25     7    1
     8    28    12    1
     9    12    30    1
    10    12     5    1
    11     8    10    2
    12     8    13    1
    13    10     4    1
    14     7    24    1
    15     7    11    1
    16    31    13    1
    17    21     4    1
    18    13    33    1
    19    13    32    1
    20     4    20    1
    21     4     2    1
    22    16     1    1
    23     5    11    2
    24     5     3    1
    25    11    27    1
    26     1     3    1
    27     1     2    1
    28     1    17    1
    29     3    18    1
    30     3    19    1
    31     2     9    2
    32    39    15    1
    33     9    15    1
    34     9    14    1
    35    15    38    1
    36    15    37    1
    37    35    14    1
    38    14    36    1
    39    14    34    1
