@<TRIPOS>MOLECULE
5281519_run_21.pdb
 39 39 0 0 0
SMALL
GASTEIGER

@<TRIPOS>ATOM
      1    C      110.7590  104.4500  126.4680 C.3     2  LIG2       -0.0275
      2    C      111.5630  105.7530  126.6680 C.2     2  LIG2       -0.0668
      3    C      109.2120  104.5310  126.6530 C.3     2  LIG2       -0.0283
      4    C      112.0840  106.3910  125.3610 C.3     2  LIG2       -0.0130
      5    C      108.4730  105.2300  125.5170 C.2     2  LIG2       -0.0762
      6    C      108.9070  107.9040  123.6170 C.3     2  LIG2       -0.0286
      7    C      107.6990  107.4580  124.4970 C.3     2  LIG2       -0.0308
      8    C      110.2410  107.8920  124.3680 C.2     2  LIG2       -0.0759
      9    C      111.8050  106.2700  127.9070 C.2     2  LIG2       -0.0762
     10    C      110.9720  106.7560  124.3970 C.2     2  LIG2       -0.0810
     11    C      108.0940  106.5210  125.6360 C.2     2  LIG2       -0.0847
     12    C      108.3240  104.4130  124.2390 C.3     2  LIG2       -0.0438
     13    C      110.5060  109.1190  125.2300 C.3     2  LIG2       -0.0438
     14    C      111.2910  105.6500  129.2050 C.3     2  LIG2       -0.0438
     15    C      112.6380  107.5210  128.1810 C.3     2  LIG2       -0.0438
     16    H      111.0000  104.0210  125.4950 H       2  LIG2        0.0313
     17    H      111.1490  103.7120  127.1690 H       2  LIG2        0.0313
     18    H      108.8020  103.5250  126.7480 H       2  LIG2        0.0313
     19    H      108.9780  105.0250  127.5960 H       2  LIG2        0.0313
     20    H      112.6730  107.2850  125.5330 H       2  LIG2        0.0352
     21    H      112.7680  105.6970  124.8720 H       2  LIG2        0.0352
     22    H      108.9850  107.2170  122.7730 H       2  LIG2        0.0313
     23    H      108.7300  108.8830  123.1700 H       2  LIG2        0.0313
     24    H      107.2430  108.3370  124.9560 H       2  LIG2        0.0310
     25    H      106.9150  107.0110  123.8840 H       2  LIG2        0.0310
     26    H      110.6560  105.9320  123.7750 H       2  LIG2        0.0575
     27    H      108.2720  107.0210  126.5780 H       2  LIG2        0.0572
     28    H      109.2850  104.0150  123.9120 H       2  LIG2        0.0274
     29    H      107.9110  104.9910  123.4140 H       2  LIG2        0.0274
     30    H      107.6510  103.5730  124.4150 H       2  LIG2        0.0274
     31    H      110.7490  109.9710  124.5950 H       2  LIG2        0.0274
     32    H      111.3320  108.9810  125.9250 H       2  LIG2        0.0274
     33    H      109.6240  109.3710  125.8190 H       2  LIG2        0.0274
     34    H      112.1250  105.4010  129.8620 H       2  LIG2        0.0274
     35    H      110.7160  104.7370  129.0720 H       2  LIG2        0.0274
     36    H      110.6480  106.3590  129.7250 H       2  LIG2        0.0274
     37    H      113.2050  107.4130  129.1060 H       2  LIG2        0.0274
     38    H      111.9810  108.3830  128.2970 H       2  LIG2        0.0274
     39    H      113.3700  107.7510  127.4100 H       2  LIG2        0.0274
@<TRIPOS>BOND
     1    22     6    1
     2    23     6    1
     3    29    12    1
     4     6     8    1
     5     6     7    1
     6    26    10    1
     7    25     7    1
     8    28    12    1
     9    12    30    1
    10    12     5    1
    11     8    10    2
    12     8    13    1
    13    10     4    1
    14     7    24    1
    15     7    11    1
    16    31    13    1
    17    21     4    1
    18    13    33    1
    19    13    32    1
    20     4    20    1
    21     4     2    1
    22    16     1    1
    23     5    11    2
    24     5     3    1
    25    11    27    1
    26     1     3    1
    27     1     2    1
    28     1    17    1
    29     3    18    1
    30     3    19    1
    31     2     9    2
    32    39    15    1
    33     9    15    1
    34     9    14    1
    35    15    38    1
    36    15    37    1
    37    35    14    1
    38    14    36    1
    39    14    34    1
@<TRIPOS>MOLECULE
5281519_run_16.pdb
 39 39 0 0 0
SMALL
GASTEIGER

@<TRIPOS>ATOM
      1    C      111.1890  107.1310  127.0940 C.3     2  LIG2       -0.0275
      2    C      111.0660  108.2950  126.0860 C.2     2  LIG2       -0.0668
      3    C      109.8660  106.5740  127.7050 C.3     2  LIG2       -0.0283
      4    C      111.3070  107.8940  124.6140 C.3     2  LIG2       -0.0130
      5    C      109.0300  105.7330  126.7460 C.2     2  LIG2       -0.0762
      6    C      108.1220  105.8510  123.5670 C.3     2  LIG2       -0.0286
      7    C      107.2750  105.7070  124.8690 C.3     2  LIG2       -0.0308
      8    C      109.1000  107.0270  123.6080 C.2     2  LIG2       -0.0759
      9    C      110.7910  109.5700  126.4850 C.2     2  LIG2       -0.0762
     10    C      110.3370  106.8400  124.1210 C.2     2  LIG2       -0.0810
     11    C      107.9680  106.2710  126.1070 C.2     2  LIG2       -0.0847
     12    C      109.5560  104.3260  126.4880 C.3     2  LIG2       -0.0438
     13    C      108.4920  108.3840  123.2790 C.3     2  LIG2       -0.0438
     14    C      110.5460  109.9760  127.9370 C.3     2  LIG2       -0.0438
     15    C      110.7110  110.7760  125.5500 C.3     2  LIG2       -0.0438
     16    H      111.7660  106.3220  126.6460 H       2  LIG2        0.0313
     17    H      111.8270  107.4700  127.9100 H       2  LIG2        0.0313
     18    H      110.0950  105.9580  128.5750 H       2  LIG2        0.0313
     19    H      109.2610  107.3960  128.0880 H       2  LIG2        0.0313
     20    H      111.2490  108.7360  123.9320 H       2  LIG2        0.0352
     21    H      112.3270  107.5210  124.5070 H       2  LIG2        0.0352
     22    H      108.6960  104.9340  123.4320 H       2  LIG2        0.0313
     23    H      107.4820  105.9180  122.6860 H       2  LIG2        0.0313
     24    H      106.3400  106.2560  124.7540 H       2  LIG2        0.0310
     25    H      106.9830  104.6680  125.0300 H       2  LIG2        0.0310
     26    H      110.6400  105.8310  124.3610 H       2  LIG2        0.0575
     27    H      107.6940  107.2900  126.3410 H       2  LIG2        0.0572
     28    H      110.6070  104.3470  126.1960 H       2  LIG2        0.0274
     29    H      109.0090  103.8080  125.7020 H       2  LIG2        0.0274
     30    H      109.4680  103.7270  127.3940 H       2  LIG2        0.0274
     31    H      108.2910  108.4500  122.2090 H       2  LIG2        0.0274
     32    H      109.1400  109.2160  123.5430 H       2  LIG2        0.0274
     33    H      107.5510  108.5210  123.8140 H       2  LIG2        0.0274
     34    H      111.2700  110.7300  128.2460 H       2  LIG2        0.0274
     35    H      110.6220  109.1590  128.6520 H       2  LIG2        0.0274
     36    H      109.5470  110.3980  128.0400 H       2  LIG2        0.0274
     37    H      111.1000  111.6700  126.0390 H       2  LIG2        0.0274
     38    H      109.6710  110.9710  125.2890 H       2  LIG2        0.0274
     39    H      111.2810  110.6690  124.6300 H       2  LIG2        0.0274
@<TRIPOS>BOND
     1    31    13    1
     2    23     6    1
     3    13    32    1
     4    13     8    1
     5    13    33    1
     6    22     6    1
     7     6     8    1
     8     6     7    1
     9     8    10    2
    10    20     4    1
    11    10    26    1
    12    10     4    1
    13    21     4    1
    14     4     2    1
    15    39    15    1
    16    24     7    1
    17     7    25    1
    18     7    11    1
    19    38    15    1
    20    15    37    1
    21    15     9    1
    22    29    12    1
    23     2     9    2
    24     2     1    1
    25    11    27    1
    26    11     5    2
    27    28    12    1
    28     9    14    1
    29    12     5    1
    30    12    30    1
    31    16     1    1
    32     5     3    1
    33     1     3    1
    34     1    17    1
    35     3    19    1
    36     3    18    1
    37    14    36    1
    38    14    34    1
    39    14    35    1
@<TRIPOS>MOLECULE
5281519_run_6.pdb
 39 39 0 0 0
SMALL
GASTEIGER

@<TRIPOS>ATOM
      1    C      110.6000  108.5810  126.1420 C.3     2  LIG2       -0.0275
      2    C      110.6520  107.4640  127.2080 C.2     2  LIG2       -0.0668
      3    C      110.8770  108.1700  124.6640 C.3     2  LIG2       -0.0283
      4    C      109.2710  107.0260  127.7430 C.3     2  LIG2       -0.0130
      5    C      109.7430  107.4010  123.9960 C.2     2  LIG2       -0.0762
      6    C      107.6280  104.9920  124.8140 C.3     2  LIG2       -0.0286
      7    C      108.6130  105.1240  123.6130 C.3     2  LIG2       -0.0308
      8    C      108.2910  105.2360  126.1720 C.2     2  LIG2       -0.0759
      9    C      111.8320  106.9360  127.6450 C.2     2  LIG2       -0.0762
     10    C      108.3560  106.4960  126.6580 C.2     2  LIG2       -0.0810
     11    C      109.7910  106.0540  123.8960 C.2     2  LIG2       -0.0847
     12    C      108.5410  108.2430  123.5850 C.3     2  LIG2       -0.0438
     13    C      109.0420  104.0420  126.7470 C.3     2  LIG2       -0.0438
     14    C      113.2020  107.3590  127.1180 C.3     2  LIG2       -0.0438
     15    C      111.9590  105.8720  128.7320 C.3     2  LIG2       -0.0438
     16    H      109.6480  109.1070  126.2150 H       2  LIG2        0.0313
     17    H      111.3270  109.3410  126.4290 H       2  LIG2        0.0313
     18    H      111.0720  109.0620  124.0660 H       2  LIG2        0.0313
     19    H      111.7950  107.5840  124.6090 H       2  LIG2        0.0313
     20    H      109.3390  106.2650  128.5140 H       2  LIG2        0.0352
     21    H      108.7920  107.8740  128.2330 H       2  LIG2        0.0352
     22    H      106.8330  105.7280  124.6850 H       2  LIG2        0.0313
     23    H      107.1220  104.0240  124.8050 H       2  LIG2        0.0313
     24    H      109.0350  104.1450  123.3820 H       2  LIG2        0.0310
     25    H      108.0860  105.4340  122.7100 H       2  LIG2        0.0310
     26    H      107.8180  107.2710  126.1330 H       2  LIG2        0.0575
     27    H      110.6800  105.5480  124.2460 H       2  LIG2        0.0572
     28    H      108.1820  108.8490  124.4170 H       2  LIG2        0.0274
     29    H      107.7030  107.6410  123.2350 H       2  LIG2        0.0274
     30    H      108.8200  108.9130  122.7720 H       2  LIG2        0.0274
     31    H      108.3320  103.2980  127.1080 H       2  LIG2        0.0274
     32    H      109.6900  104.3070  127.5780 H       2  LIG2        0.0274
     33    H      109.6660  103.5790  125.9820 H       2  LIG2        0.0274
     34    H      113.8210  107.7370  127.9330 H       2  LIG2        0.0274
     35    H      113.1730  108.1390  126.3610 H       2  LIG2        0.0274
     36    H      113.7080  106.5020  126.6740 H       2  LIG2        0.0274
     37    H      112.8520  106.0400  129.3370 H       2  LIG2        0.0274
     38    H      112.0530  104.8870  128.2760 H       2  LIG2        0.0274
     39    H      111.1280  105.8450  129.4340 H       2  LIG2        0.0274
@<TRIPOS>BOND
     1    25     7    1
     2    30    12    1
     3    29    12    1
     4    24     7    1
     5    12     5    1
     6    12    28    1
     7     7    11    1
     8     7     6    1
     9    11     5    2
    10    11    27    1
    11     5     3    1
    12    18     3    1
    13    19     3    1
    14     3     1    1
    15    22     6    1
    16    23     6    1
    17     6     8    1
    18    33    13    1
    19    26    10    1
    20     1    16    1
    21     1    17    1
    22     1     2    1
    23     8    10    2
    24     8    13    1
    25    35    14    1
    26    10     4    1
    27    36    14    1
    28    13    31    1
    29    13    32    1
    30    14     9    1
    31    14    34    1
    32     2     9    2
    33     2     4    1
    34     9    15    1
    35     4    21    1
    36     4    20    1
    37    38    15    1
    38    15    37    1
    39    15    39    1
@<TRIPOS>MOLECULE
5281519_run_6.pdb
 39 39 0 0 0
SMALL
GASTEIGER

@<TRIPOS>ATOM
      1    C      110.9520  107.6450  124.3060 C.3     2  LIG2       -0.0275
      2    C      109.8540  106.5610  124.2390 C.2     2  LIG2       -0.0668
      3    C      111.0160  108.5180  125.5970 C.3     2  LIG2       -0.0283
      4    C      110.3700  105.1170  124.4210 C.3     2  LIG2       -0.0130
      5    C      111.5690  107.8000  126.8220 C.2     2  LIG2       -0.0762
      6    C      111.2810  104.8190  128.2290 C.3     2  LIG2       -0.0286
      7    C      111.0860  106.2510  128.8150 C.3     2  LIG2       -0.0308
      8    C      110.4950  104.5810  126.9370 C.2     2  LIG2       -0.0759
      9    C      108.5450  106.8710  124.0130 C.2     2  LIG2       -0.0762
     10    C      111.0620  104.8980  125.7510 C.2     2  LIG2       -0.0810
     11    C      110.7350  107.2950  127.7570 C.2     2  LIG2       -0.0847
     12    C      113.0790  107.5980  126.8300 C.3     2  LIG2       -0.0438
     13    C      109.0280  104.2240  127.1320 C.3     2  LIG2       -0.0438
     14    C      108.0240  108.2970  123.8370 C.3     2  LIG2       -0.0438
     15    C      107.4190  105.8480  123.8800 C.3     2  LIG2       -0.0438
     16    H      111.9240  107.1900  124.1110 H       2  LIG2        0.0313
     17    H      110.8120  108.3070  123.4510 H       2  LIG2        0.0313
     18    H      111.6370  109.3960  125.4150 H       2  LIG2        0.0313
     19    H      110.0250  108.9130  125.8240 H       2  LIG2        0.0313
     20    H      109.5840  104.3740  124.3360 H       2  LIG2        0.0352
     21    H      111.0630  104.8800  123.6130 H       2  LIG2        0.0352
     22    H      112.3420  104.6820  128.0130 H       2  LIG2        0.0313
     23    H      111.0410  104.0530  128.9680 H       2  LIG2        0.0313
     24    H      110.2620  106.2380  129.5310 H       2  LIG2        0.0310
     25    H      111.9620  106.5600  129.3870 H       2  LIG2        0.0310
     26    H      112.1030  105.1830  125.7460 H       2  LIG2        0.0575
     27    H      109.6740  107.4690  127.6440 H       2  LIG2        0.0572
     28    H      113.4190  107.1360  125.9030 H       2  LIG2        0.0274
     29    H      113.4170  106.9690  127.6520 H       2  LIG2        0.0274
     30    H      113.5800  108.5620  126.9320 H       2  LIG2        0.0274
     31    H      108.9410  103.2010  127.5000 H       2  LIG2        0.0274
     32    H      108.4470  104.2940  126.2150 H       2  LIG2        0.0274
     33    H      108.5660  104.8910  127.8610 H       2  LIG2        0.0274
     34    H      107.5410  108.4060  122.8660 H       2  LIG2        0.0274
     35    H      108.7910  109.0670  123.8920 H       2  LIG2        0.0274
     36    H      107.2910  108.5210  124.6110 H       2  LIG2        0.0274
     37    H      106.6850  106.1740  123.1410 H       2  LIG2        0.0274
     38    H      106.9010  105.7440  124.8330 H       2  LIG2        0.0274
     39    H      107.7440  104.8620  123.5580 H       2  LIG2        0.0274
@<TRIPOS>BOND
     1    34    14    1
     2    37    15    1
     3    17     1    1
     4    39    15    1
     5    21     4    1
     6    14    35    1
     7    14     9    1
     8    14    36    1
     9    15     9    1
    10    15    38    1
    11     9     2    2
    12    16     1    1
    13     2     1    1
    14     2     4    1
    15     1     3    1
    16    20     4    1
    17     4    10    1
    18    18     3    1
    19     3    19    1
    20     3     5    1
    21    26    10    1
    22    10     8    2
    23    28    12    1
    24    32    13    1
    25     5    12    1
    26     5    11    2
    27    12    30    1
    28    12    29    1
    29     8    13    1
    30     8     6    1
    31    13    31    1
    32    13    33    1
    33    27    11    1
    34    11     7    1
    35    22     6    1
    36     6     7    1
    37     6    23    1
    38     7    25    1
    39     7    24    1
@<TRIPOS>MOLECULE
5281519_run_10.pdb
 39 39 0 0 0
SMALL
GASTEIGER

@<TRIPOS>ATOM
      1    C      109.0200  104.7320  126.7700 C.3     2  LIG2       -0.0275
      2    C      108.5560  105.8750  125.8400 C.2     2  LIG2       -0.0668
      3    C      110.4470  104.1500  126.5290 C.3     2  LIG2       -0.0283
      4    C      108.5410  107.2710  126.5010 C.3     2  LIG2       -0.0130
      5    C      111.5870  105.0570  126.9780 C.2     2  LIG2       -0.0762
      6    C      112.3180  108.2820  126.8610 C.3     2  LIG2       -0.0286
      7    C      113.1290  107.0310  126.4010 C.3     2  LIG2       -0.0308
      8    C      110.8900  108.3130  126.3140 C.2     2  LIG2       -0.0759
      9    C      108.1720  105.6470  124.5510 C.2     2  LIG2       -0.0762
     10    C      109.9030  107.7020  127.0070 C.2     2  LIG2       -0.0810
     11    C      112.2480  105.8240  126.0840 C.2     2  LIG2       -0.0847
     12    C      111.8160  105.1150  128.4830 C.3     2  LIG2       -0.0438
     13    C      110.7550  108.8380  124.8910 C.3     2  LIG2       -0.0438
     14    C      108.1880  104.2710  123.8870 C.3     2  LIG2       -0.0438
     15    C      107.6520  106.7190  123.5960 C.3     2  LIG2       -0.0438
     16    H      108.9120  105.0450  127.8100 H       2  LIG2        0.0313
     17    H      108.2990  103.9210  126.6780 H       2  LIG2        0.0313
     18    H      110.5490  103.2000  127.0550 H       2  LIG2        0.0313
     19    H      110.5720  103.9060  125.4730 H       2  LIG2        0.0313
     20    H      108.1790  108.0490  125.8360 H       2  LIG2        0.0352
     21    H      107.8350  107.2660  127.3320 H       2  LIG2        0.0352
     22    H      112.2660  108.2710  127.9510 H       2  LIG2        0.0313
     23    H      112.8430  109.2060  126.6110 H       2  LIG2        0.0313
     24    H      113.6750  107.2710  125.4880 H       2  LIG2        0.0310
     25    H      113.8910  106.7700  127.1350 H       2  LIG2        0.0310
     26    H      110.1330  107.3260  127.9930 H       2  LIG2        0.0575
     27    H      111.9890  105.7290  125.0390 H       2  LIG2        0.0572
     28    H      110.8900  105.3370  129.0140 H       2  LIG2        0.0274
     29    H      112.5460  105.8700  128.7710 H       2  LIG2        0.0274
     30    H      112.1880  104.1530  128.8370 H       2  LIG2        0.0274
     31    H      110.8970  109.9190  124.8800 H       2  LIG2        0.0274
     32    H      109.7830  108.6300  124.4500 H       2  LIG2        0.0274
     33    H      111.5090  108.3860  124.2440 H       2  LIG2        0.0274
     34    H      107.1880  104.0050  123.5450 H       2  LIG2        0.0274
     35    H      108.5230  103.4630  124.5340 H       2  LIG2        0.0274
     36    H      108.8530  104.2850  123.0240 H       2  LIG2        0.0274
     37    H      106.8740  106.3130  122.9460 H       2  LIG2        0.0274
     38    H      108.4620  107.0700  122.9580 H       2  LIG2        0.0274
     39    H      107.2060  107.5800  124.0870 H       2  LIG2        0.0274
@<TRIPOS>BOND
     1    37    15    1
     2    38    15    1
     3    36    14    1
     4    34    14    1
     5    15    39    1
     6    15     9    1
     7    14    35    1
     8    14     9    1
     9    33    13    1
    10    32    13    1
    11     9     2    2
    12    31    13    1
    13    13     8    1
    14    27    11    1
    15    19     3    1
    16    24     7    1
    17    20     4    1
    18     2     4    1
    19     2     1    1
    20    11     7    1
    21    11     5    2
    22     8     6    1
    23     8    10    2
    24     7     6    1
    25     7    25    1
    26     4    10    1
    27     4    21    1
    28     3     1    1
    29     3     5    1
    30     3    18    1
    31    23     6    1
    32    17     1    1
    33     1    16    1
    34     6    22    1
    35     5    12    1
    36    10    26    1
    37    12    29    1
    38    12    30    1
    39    12    28    1
@<TRIPOS>MOLECULE
5281519_run_7.pdb
 39 39 0 0 0
SMALL
GASTEIGER

@<TRIPOS>ATOM
      1    C      108.8400  108.0010  125.1530 C.3     2  LIG2       -0.0275
      2    C      109.7900  108.7090  126.1440 C.2     2  LIG2       -0.0668
      3    C      109.4900  107.0860  124.0700 C.3     2  LIG2       -0.0283
      4    C      109.7910  108.1110  127.5680 C.3     2  LIG2       -0.0130
      5    C      110.0230  105.7590  124.5980 C.2     2  LIG2       -0.0762
      6    C      111.6910  104.6890  127.2470 C.3     2  LIG2       -0.0286
      7    C      111.9660  104.5080  125.7230 C.3     2  LIG2       -0.0308
      8    C      111.4550  106.1460  127.6520 C.2     2  LIG2       -0.0759
      9    C      110.5420  109.7880  125.7800 C.2     2  LIG2       -0.0762
     10    C      110.2030  106.6520  127.5970 C.2     2  LIG2       -0.0810
     11    C      111.3380  105.6020  124.8610 C.2     2  LIG2       -0.0847
     12    C      108.9610  104.7120  124.9100 C.3     2  LIG2       -0.0438
     13    C      112.7190  106.9710  127.8540 C.3     2  LIG2       -0.0438
     14    C      110.5530  110.3840  124.3730 C.3     2  LIG2       -0.0438
     15    C      111.4590  110.5670  126.7200 C.3     2  LIG2       -0.0438
     16    H      108.0830  107.4470  125.7100 H       2  LIG2        0.0313
     17    H      108.2610  108.7730  124.6470 H       2  LIG2        0.0313
     18    H      108.7600  106.8670  123.2900 H       2  LIG2        0.0313
     19    H      110.2930  107.6250  123.5660 H       2  LIG2        0.0313
     20    H      110.4410  108.6470  128.2510 H       2  LIG2        0.0352
     21    H      108.7940  108.2100  127.9980 H       2  LIG2        0.0352
     22    H      110.7980  104.1150  127.5020 H       2  LIG2        0.0313
     23    H      112.4900  104.2510  127.8470 H       2  LIG2        0.0313
     24    H      113.0410  104.5440  125.5430 H       2  LIG2        0.0310
     25    H      111.6480  103.5210  125.3840 H       2  LIG2        0.0310
     26    H      109.3880  105.9720  127.3980 H       2  LIG2        0.0575
     27    H      112.0070  106.4190  124.6290 H       2  LIG2        0.0572
     28    H      108.1830  105.1200  125.5560 H       2  LIG2        0.0274
     29    H      109.3680  103.8320  125.4060 H       2  LIG2        0.0274
     30    H      108.4910  104.3740  123.9860 H       2  LIG2        0.0274
     31    H      113.2060  106.6800  128.7840 H       2  LIG2        0.0274
     32    H      112.5250  108.0400  127.9050 H       2  LIG2        0.0274
     33    H      113.4180  106.8060  127.0340 H       2  LIG2        0.0274
     34    H      110.2460  111.4290  124.4030 H       2  LIG2        0.0274
     35    H      109.8920  109.8850  123.6670 H       2  LIG2        0.0274
     36    H      111.5590  110.3350  123.9580 H       2  LIG2        0.0274
     37    H      111.4490  111.6310  126.4760 H       2  LIG2        0.0274
     38    H      112.4840  110.2150  126.6110 H       2  LIG2        0.0274
     39    H      111.1850  110.5020  127.7700 H       2  LIG2        0.0274
@<TRIPOS>BOND
     1    18     3    1
     2    19     3    1
     3    35    14    1
     4    36    14    1
     5    30    12    1
     6     3     5    1
     7     3     1    1
     8    14    34    1
     9    14     9    1
    10     5    11    2
    11     5    12    1
    12    27    11    1
    13    17     1    1
    14    11     7    1
    15    12    29    1
    16    12    28    1
    17     1    16    1
    18     1     2    1
    19    25     7    1
    20    24     7    1
    21     7     6    1
    22     9     2    2
    23     9    15    1
    24     2     4    1
    25    37    15    1
    26    38    15    1
    27    15    39    1
    28    33    13    1
    29     6    22    1
    30     6     8    1
    31     6    23    1
    32    26    10    1
    33     4    10    1
    34     4    21    1
    35     4    20    1
    36    10     8    2
    37     8    13    1
    38    13    32    1
    39    13    31    1
@<TRIPOS>MOLECULE
5281519_run_10.pdb
 39 39 0 0 0
SMALL
GASTEIGER

@<TRIPOS>ATOM
      1    C      111.7380  108.7840  125.7020 C.3     2  LIG2       -0.0275
      2    C      110.5750  108.8450  124.6880 C.2     2  LIG2       -0.0668
      3    C      111.3630  108.7380  127.2150 C.3     2  LIG2       -0.0283
      4    C      110.3200  107.5240  123.9270 C.3     2  LIG2       -0.0130
      5    C      110.8030  107.4020  127.6900 C.2     2  LIG2       -0.0762
      6    C      108.6960  105.1120  126.5660 C.3     2  LIG2       -0.0286
      7    C      108.7390  105.8870  127.9190 C.3     2  LIG2       -0.0308
      8    C      108.7730  106.0270  125.3410 C.2     2  LIG2       -0.0759
      9    C      109.8580  109.9860  124.4760 C.2     2  LIG2       -0.0762
     10    C      109.9840  106.3670  124.8470 C.2     2  LIG2       -0.0810
     11    C      109.4710  107.2250  127.8260 C.2     2  LIG2       -0.0847
     12    C      111.8320  106.2920  127.8640 C.3     2  LIG2       -0.0438
     13    C      107.4550  106.6710  124.9340 C.3     2  LIG2       -0.0438
     14    C      110.0980  111.2950  125.2260 C.3     2  LIG2       -0.0438
     15    C      108.7350  110.1310  123.4520 C.3     2  LIG2       -0.0438
     16    H      112.3950  107.9510  125.4510 H       2  LIG2        0.0313
     17    H      112.3670  109.6580  125.5310 H       2  LIG2        0.0313
     18    H      112.2440  108.9640  127.8180 H       2  LIG2        0.0313
     19    H      110.6510  109.5320  127.4440 H       2  LIG2        0.0313
     20    H      109.5210  107.6040  123.1980 H       2  LIG2        0.0352
     21    H      111.2050  107.2720  123.3420 H       2  LIG2        0.0352
     22    H      109.5470  104.4300  126.5370 H       2  LIG2        0.0313
     23    H      107.8160  104.4700  126.5070 H       2  LIG2        0.0313
     24    H      107.7210  106.1070  128.2420 H       2  LIG2        0.0310
     25    H      109.1670  105.2680  128.7080 H       2  LIG2        0.0310
     26    H      110.8550  105.8730  125.2510 H       2  LIG2        0.0575
     27    H      108.8220  108.0710  127.6500 H       2  LIG2        0.0572
     28    H      112.4440  106.1780  126.9690 H       2  LIG2        0.0274
     29    H      111.3790  105.3250  128.0750 H       2  LIG2        0.0274
     30    H      112.4930  106.5290  128.6990 H       2  LIG2        0.0274
     31    H      106.8070  105.9270  124.4700 H       2  LIG2        0.0274
     32    H      107.5810  107.4850  124.2230 H       2  LIG2        0.0274
     33    H      106.9420  107.0770  125.8060 H       2  LIG2        0.0274
     34    H      110.3410  112.0940  124.5250 H       2  LIG2        0.0274
     35    H      110.9100  111.2580  125.9490 H       2  LIG2        0.0274
     36    H      109.1990  111.5800  125.7710 H       2  LIG2        0.0274
     37    H      108.7400  111.1290  123.0110 H       2  LIG2        0.0274
     38    H      107.7700  109.9930  123.9400 H       2  LIG2        0.0274
     39    H      108.7970  109.4380  122.6160 H       2  LIG2        0.0274
@<TRIPOS>BOND
     1    39    15    1
     2    37    15    1
     3    20     4    1
     4    21     4    1
     5    15    38    1
     6    15     9    1
     7     4     2    1
     8     4    10    1
     9    32    13    1
    10    31    13    1
    11     9     2    2
    12     9    14    1
    13    34    14    1
    14     2     1    1
    15    10    26    1
    16    10     8    2
    17    13     8    1
    18    13    33    1
    19    14    36    1
    20    14    35    1
    21     8     6    1
    22    16     1    1
    23    17     1    1
    24     1     3    1
    25    23     6    1
    26    22     6    1
    27     6     7    1
    28    28    12    1
    29     3    19    1
    30     3     5    1
    31     3    18    1
    32    27    11    1
    33     5    11    2
    34     5    12    1
    35    11     7    1
    36    12    29    1
    37    12    30    1
    38     7    24    1
    39     7    25    1
@<TRIPOS>MOLECULE
5281519_run_21.pdb
 39 39 0 0 0
SMALL
GASTEIGER

@<TRIPOS>ATOM
      1    C      107.3150  105.4230  124.6280 C.3     2  LIG2       -0.0275
      2    C      107.7680  106.7140  123.9120 C.2     2  LIG2       -0.0668
      3    C      108.3590  104.2710  124.7510 C.3     2  LIG2       -0.0283
      4    C      108.0260  107.9110  124.8530 C.3     2  LIG2       -0.0130
      5    C      109.4620  104.5200  125.7740 C.2     2  LIG2       -0.0762
      6    C      111.3710  107.0510  126.7220 C.3     2  LIG2       -0.0286
      7    C      111.7390  105.6040  126.2700 C.3     2  LIG2       -0.0308
      8    C      110.4390  107.7720  125.7460 C.2     2  LIG2       -0.0759
      9    C      107.9010  106.7800  122.5560 C.2     2  LIG2       -0.0762
     10    C      109.1010  107.6330  125.8850 C.2     2  LIG2       -0.0810
     11    C      110.6770  104.9600  125.3810 C.2     2  LIG2       -0.0847
     12    C      109.0440  104.3590  127.2310 C.3     2  LIG2       -0.0438
     13    C      111.1270  108.3990  124.5410 C.3     2  LIG2       -0.0438
     14    C      107.6530  105.6010  121.6170 C.3     2  LIG2       -0.0438
     15    C      108.2910  108.0360  121.7790 C.3     2  LIG2       -0.0438
     16    H      106.9150  105.6750  125.6110 H       2  LIG2        0.0313
     17    H      106.4440  105.0410  124.0960 H       2  LIG2        0.0313
     18    H      107.8520  103.3450  125.0260 H       2  LIG2        0.0313
     19    H      108.8060  104.0730  123.7770 H       2  LIG2        0.0313
     20    H      108.3100  108.8130  124.3220 H       2  LIG2        0.0352
     21    H      107.0980  108.1710  125.3640 H       2  LIG2        0.0352
     22    H      110.8700  106.9870  127.6890 H       2  LIG2        0.0313
     23    H      112.2660  107.6470  126.9050 H       2  LIG2        0.0313
     24    H      112.6610  105.6310  125.6890 H       2  LIG2        0.0310
     25    H      111.9560  104.9710  127.1310 H       2  LIG2        0.0310
     26    H      108.7320  107.1240  126.7630 H       2  LIG2        0.0575
     27    H      110.8620  105.0690  124.3220 H       2  LIG2        0.0572
     28    H      108.1500  104.9430  127.4510 H       2  LIG2        0.0274
     29    H      109.8190  104.6730  127.9290 H       2  LIG2        0.0274
     30    H      108.8260  103.3110  127.4380 H       2  LIG2        0.0274
     31    H      111.6700  109.2930  124.8500 H       2  LIG2        0.0274
     32    H      110.4310  108.6920  123.7580 H       2  LIG2        0.0274
     33    H      111.8380  107.7000  124.1000 H       2  LIG2        0.0274
     34    H      106.8710  105.8470  120.8990 H       2  LIG2        0.0274
     35    H      107.3420  104.6850  122.1150 H       2  LIG2        0.0274
     36    H      108.5640  105.3700  121.0640 H       2  LIG2        0.0274
     37    H      107.7660  108.0790  120.8240 H       2  LIG2        0.0274
     38    H      109.3590  108.0210  121.5660 H       2  LIG2        0.0274
     39    H      108.0570  108.9690  122.2880 H       2  LIG2        0.0274
@<TRIPOS>BOND
     1    37    15    1
     2    34    14    1
     3    36    14    1
     4    38    15    1
     5    14    35    1
     6    14     9    1
     7    15    39    1
     8    15     9    1
     9     9     2    2
    10    32    13    1
    11    19     3    1
    12     2     1    1
    13     2     4    1
    14    17     1    1
    15    33    13    1
    16    27    11    1
    17    20     4    1
    18    13    31    1
    19    13     8    1
    20     1     3    1
    21     1    16    1
    22     3    18    1
    23     3     5    1
    24     4    21    1
    25     4    10    1
    26    11     5    2
    27    11     7    1
    28    24     7    1
    29     8    10    2
    30     8     6    1
    31     5    12    1
    32    10    26    1
    33     7     6    1
    34     7    25    1
    35     6    23    1
    36     6    22    1
    37    12    30    1
    38    12    28    1
    39    12    29    1
@<TRIPOS>MOLECULE
5281519_run_1.pdb
 39 39 0 0 0
SMALL
GASTEIGER

@<TRIPOS>ATOM
      1    C      109.3200  107.4700  123.6100 C.3     2  LIG2       -0.0275
      2    C      109.1990  106.0880  124.2900 C.2     2  LIG2       -0.0668
      3    C      109.0670  108.7270  124.4980 C.3     2  LIG2       -0.0283
      4    C      110.5490  105.3840  124.5520 C.3     2  LIG2       -0.0130
      5    C      110.1890  109.0470  125.4790 C.2     2  LIG2       -0.0762
      6    C      112.1930  107.3740  127.5110 C.3     2  LIG2       -0.0286
      7    C      111.2450  108.5830  127.7760 C.3     2  LIG2       -0.0308
      8    C      111.5040  106.2080  126.7980 C.2     2  LIG2       -0.0759
      9    C      107.9900  105.5400  124.6050 C.2     2  LIG2       -0.0762
     10    C      111.4720  106.1870  125.4460 C.2     2  LIG2       -0.0810
     11    C      110.0950  108.6800  126.7750 C.2     2  LIG2       -0.0847
     12    C      111.4310  109.6770  124.8610 C.3     2  LIG2       -0.0438
     13    C      110.6960  105.2860  127.7010 C.3     2  LIG2       -0.0438
     14    C      106.6500  106.2300  124.3560 C.3     2  LIG2       -0.0438
     15    C      107.7970  104.1590  125.2270 C.3     2  LIG2       -0.0438
     16    H      110.2880  107.5470  123.1150 H       2  LIG2        0.0313
     17    H      108.6130  107.4890  122.7800 H       2  LIG2        0.0313
     18    H      108.9190  109.6010  123.8620 H       2  LIG2        0.0313
     19    H      108.1300  108.6100  125.0440 H       2  LIG2        0.0313
     20    H      110.4340  104.4020  124.9980 H       2  LIG2        0.0352
     21    H      111.0460  105.1980  123.5990 H       2  LIG2        0.0352
     22    H      113.0170  107.7190  126.8840 H       2  LIG2        0.0313
     23    H      112.6630  107.0310  128.4350 H       2  LIG2        0.0313
     24    H      110.7940  108.4790  128.7640 H       2  LIG2        0.0310
     25    H      111.8060  109.5180  127.8100 H       2  LIG2        0.0310
     26    H      112.0520  106.9260  124.9130 H       2  LIG2        0.0575
     27    H      109.1790  108.2110  127.1080 H       2  LIG2        0.0572
     28    H      111.7900  109.0920  124.0140 H       2  LIG2        0.0274
     29    H      112.2550  109.7680  125.5670 H       2  LIG2        0.0274
     30    H      111.1970  110.6810  124.5050 H       2  LIG2        0.0274
     31    H      111.3690  104.6650  128.2930 H       2  LIG2        0.0274
     32    H      110.0360  104.6210  127.1490 H       2  LIG2        0.0274
     33    H      110.0760  105.8670  128.3840 H       2  LIG2        0.0274
     34    H      106.0250  105.6180  123.7050 H       2  LIG2        0.0274
     35    H      106.7280  107.2070  123.8850 H       2  LIG2        0.0274
     36    H      106.1250  106.3710  125.3000 H       2  LIG2        0.0274
     37    H      106.8950  103.6820  124.8380 H       2  LIG2        0.0274
     38    H      107.6790  104.2530  126.3060 H       2  LIG2        0.0274
     39    H      108.6070  103.4600  125.0310 H       2  LIG2        0.0274
@<TRIPOS>BOND
     1    17     1    1
     2    16     1    1
     3    21     4    1
     4     1     2    1
     5     1     3    1
     6    34    14    1
     7    18     3    1
     8    35    14    1
     9    28    12    1
    10     2     4    1
    11     2     9    2
    12    14     9    1
    13    14    36    1
    14     3    19    1
    15     3     5    1
    16    30    12    1
    17     4    20    1
    18     4    10    1
    19     9    15    1
    20    37    15    1
    21    12     5    1
    22    12    29    1
    23    26    10    1
    24    39    15    1
    25    15    38    1
    26    10     8    2
    27     5    11    2
    28    11    27    1
    29    11     7    1
    30     8     6    1
    31     8    13    1
    32    22     6    1
    33    32    13    1
    34     6     7    1
    35     6    23    1
    36    13    31    1
    37    13    33    1
    38     7    25    1
    39     7    24    1
@<TRIPOS>MOLECULE
5281519_run_5.pdb
 39 39 0 0 0
SMALL
GASTEIGER

@<TRIPOS>ATOM
      1    C      109.8630  112.2720  123.3690 C.3     2  LIG2       -0.0275
      2    C      110.5470  111.1850  124.2270 C.2     2  LIG2       -0.0668
      3    C      108.5640  112.9190  123.9390 C.3     2  LIG2       -0.0283
      4    C      111.8460  111.6440  124.9250 C.3     2  LIG2       -0.0130
      5    C      108.7910  113.8900  125.0920 C.2     2  LIG2       -0.0762
      6    C      110.6770  114.0420  127.8070 C.3     2  LIG2       -0.0286
      7    C      109.1360  114.1930  127.6210 C.3     2  LIG2       -0.0308
      8    C      111.2440  112.7760  127.1600 C.2     2  LIG2       -0.0759
      9    C      110.0430  109.9210  124.3300 C.2     2  LIG2       -0.0762
     10    C      111.6320  112.8140  125.8650 C.2     2  LIG2       -0.0810
     11    C      108.6060  113.4950  126.3700 C.2     2  LIG2       -0.0847
     12    C      109.3490  115.2510  124.6940 C.3     2  LIG2       -0.0438
     13    C      111.0910  111.5060  127.9850 C.3     2  LIG2       -0.0438
     14    C      108.7560  109.4590  123.6480 C.3     2  LIG2       -0.0438
     15    C      110.6950  108.7850  125.1140 C.3     2  LIG2       -0.0438
     16    H      110.5900  113.0460  123.1180 H       2  LIG2        0.0313
     17    H      109.6290  111.8270  122.4020 H       2  LIG2        0.0313
     18    H      108.0450  113.4590  123.1460 H       2  LIG2        0.0313
     19    H      107.8700  112.1390  124.2530 H       2  LIG2        0.0313
     20    H      112.3230  110.8520  125.4930 H       2  LIG2        0.0352
     21    H      112.5800  111.9220  124.1680 H       2  LIG2        0.0352
     22    H      111.1610  114.9060  127.3480 H       2  LIG2        0.0313
     23    H      110.9540  114.0880  128.8610 H       2  LIG2        0.0313
     24    H      108.6240  113.7440  128.4730 H       2  LIG2        0.0310
     25    H      108.8440  115.2440  127.6280 H       2  LIG2        0.0310
     26    H      111.6550  113.7730  125.3690 H       2  LIG2        0.0575
     27    H      108.2340  112.4950  126.5470 H       2  LIG2        0.0572
     28    H      110.2390  115.1460  124.0730 H       2  LIG2        0.0274
     29    H      109.6200  115.8640  125.5520 H       2  LIG2        0.0274
     30    H      108.6010  115.8040  124.1250 H       2  LIG2        0.0274
     31    H      111.7910  111.5210  128.8200 H       2  LIG2        0.0274
     32    H      111.2820  110.6010  127.4130 H       2  LIG2        0.0274
     33    H      110.0800  111.4300  128.3860 H       2  LIG2        0.0274
     34    H      108.9610  108.6220  122.9810 H       2  LIG2        0.0274
     35    H      108.2640  110.2220  123.0480 H       2  LIG2        0.0274
     36    H      108.0370  109.1300  124.3980 H       2  LIG2        0.0274
     37    H      110.5480  107.8300  124.6070 H       2  LIG2        0.0274
     38    H      110.2370  108.7060  126.1000 H       2  LIG2        0.0274
     39    H      111.7700  108.8880  125.2440 H       2  LIG2        0.0274
@<TRIPOS>BOND
     1    17     1    1
     2    34    14    1
     3    35    14    1
     4    16     1    1
     5    18     3    1
     6     1     3    1
     7     1     2    1
     8    14     9    1
     9    14    36    1
    10     3    19    1
    11     3     5    1
    12    28    12    1
    13    30    12    1
    14    21     4    1
    15     2     9    2
    16     2     4    1
    17     9    15    1
    18    37    15    1
    19    12     5    1
    20    12    29    1
    21     4    20    1
    22     4    10    1
    23     5    11    2
    24    15    39    1
    25    15    38    1
    26    26    10    1
    27    10     8    2
    28    11    27    1
    29    11     7    1
    30     8     6    1
    31     8    13    1
    32    22     6    1
    33    32    13    1
    34     7    25    1
    35     7     6    1
    36     7    24    1
    37     6    23    1
    38    13    33    1
    39    13    31    1
