# Top-energy pose of compounds ranked according to the score (given in kcal/mol).
@<TRIPOS>MOLECULE
ligand_5f2d9ed02a_1_run_11.pdb
 34 35 0 0 0
SMALL
GASTEIGER

@<TRIPOS>ATOM
      1    C       11.2140    6.4910  -13.5780 C.3     2  LIG2       -0.0394
      2    C       14.1580    6.7510  -13.0390 C.3     2  LIG2       -0.0377
      3    C       11.6730   10.2550  -13.4320 C.ar    2  LIG2       -0.0597
      4    C       11.1060    8.9960  -13.5550 C.ar    2  LIG2       -0.0585
      5    C       13.0310   10.3760  -13.1860 C.ar    2  LIG2       -0.0402
      6    C       20.1510    9.2870  -11.3090 C.3     2  LIG2        0.1027
      7    C       21.5550    8.8580  -10.8740 C.2     2  LIG2        0.3661
      8    C       11.8870    7.8550  -13.4330 C.ar    2  LIG2       -0.0458
      9    C       13.2490    7.9760  -13.1880 C.ar    2  LIG2       -0.0264
     10    C       13.8090    9.2320  -13.0650 C.ar    2  LIG2        0.0356
     11    N       15.2270    9.3320  -12.8090 N.pl3   2  LIG2       -0.2991
     12    O       22.5100    9.6780  -10.9470 O.co2   2  LIG2       -0.2454
     13    O       21.7580    7.6870  -10.4500 O.co2   2  LIG2       -0.2454
     14    S       19.3530   10.1460   -9.9240 S.3     2  LIG2       -0.0745
     15   Cl       14.4130   11.1170   -8.0050 Cl      2  LIG2       -0.0618
     16    N       16.7600   10.5640   -9.1700 N.ar    2  LIG2       -0.2101
     17    C       17.5620   10.1590  -10.1730 C.ar    2  LIG2        0.1918
     18    N       17.0470    9.7620  -11.3540 N.ar    2  LIG2       -0.2067
     19    C       15.7430    9.7680  -11.5300 C.ar    2  LIG2        0.1287
     20    C       14.9210   10.1740  -10.5240 C.ar    2  LIG2        0.0154
     21    C       15.4540   10.5720   -9.3450 C.ar    2  LIG2        0.1354
     22    H       11.9570    5.7040  -13.4560 H       2  LIG2        0.0278
     23    H       10.4420    6.3830  -12.8160 H       2  LIG2        0.0278
     24    H       10.7600    6.4120  -14.5660 H       2  LIG2        0.0278
     25    H       15.1810    7.0780  -12.8520 H       2  LIG2        0.0278
     26    H       13.8140    6.1420  -12.2030 H       2  LIG2        0.0278
     27    H       14.1270    6.1610  -13.9550 H       2  LIG2        0.0278
     28    H       11.0570   11.1360  -13.5280 H       2  LIG2        0.0618
     29    H       10.0490    8.8970  -13.7470 H       2  LIG2        0.0620
     30    H       13.4770   11.3540  -13.0900 H       2  LIG2        0.0636
     31    H       19.5680    8.4050  -11.5740 H       2  LIG2        0.0496
     32    H       20.2260    9.9630  -12.1620 H       2  LIG2        0.0496
     33    H       15.8890    9.0940  -13.5330 H       2  LIG2        0.1536
     34    H       13.8510   10.1770  -10.6690 H       2  LIG2        0.0682
@<TRIPOS>BOND
     1    24     1    1
     2    27     2    1
     3    29     4    1
     4     1    22    1
     5     1     8    1
     6     1    23    1
     7     4     8   ar
     8     4     3   ar
     9    33    11    1
    10    28     3    1
    11     8     9   ar
    12     3     5   ar
    13     9    10   ar
    14     9     2    1
    15     5    30    1
    16     5    10   ar
    17    10    11    1
    18     2    25    1
    19     2    26    1
    20    11    19    1
    21    32     6    1
    22    31     6    1
    23    19    18   ar
    24    19    20   ar
    25    18    17   ar
    26     6     7    1
    27     6    14    1
    28    12     7   ar
    29     7    13   ar
    30    34    20    1
    31    20    21   ar
    32    17    14    1
    33    17    16   ar
    34    21    16   ar
    35    21    15    1
