@<TRIPOS>MOLECULE
ligand_5f2d9ed02a_1_run_11.pdb
 34 35 0 0 0
SMALL
GASTEIGER

@<TRIPOS>ATOM
      1    C       11.2140    6.4910  -13.5780 C.3     2  LIG2       -0.0394
      2    C       14.1580    6.7510  -13.0390 C.3     2  LIG2       -0.0377
      3    C       11.6730   10.2550  -13.4320 C.ar    2  LIG2       -0.0597
      4    C       11.1060    8.9960  -13.5550 C.ar    2  LIG2       -0.0585
      5    C       13.0310   10.3760  -13.1860 C.ar    2  LIG2       -0.0402
      6    C       20.1510    9.2870  -11.3090 C.3     2  LIG2        0.1027
      7    C       21.5550    8.8580  -10.8740 C.2     2  LIG2        0.3661
      8    C       11.8870    7.8550  -13.4330 C.ar    2  LIG2       -0.0458
      9    C       13.2490    7.9760  -13.1880 C.ar    2  LIG2       -0.0264
     10    C       13.8090    9.2320  -13.0650 C.ar    2  LIG2        0.0356
     11    N       15.2270    9.3320  -12.8090 N.pl3   2  LIG2       -0.2991
     12    O       22.5100    9.6780  -10.9470 O.co2   2  LIG2       -0.2454
     13    O       21.7580    7.6870  -10.4500 O.co2   2  LIG2       -0.2454
     14    S       19.3530   10.1460   -9.9240 S.3     2  LIG2       -0.0745
     15   Cl       14.4130   11.1170   -8.0050 Cl      2  LIG2       -0.0618
     16    N       16.7600   10.5640   -9.1700 N.ar    2  LIG2       -0.2101
     17    C       17.5620   10.1590  -10.1730 C.ar    2  LIG2        0.1918
     18    N       17.0470    9.7620  -11.3540 N.ar    2  LIG2       -0.2067
     19    C       15.7430    9.7680  -11.5300 C.ar    2  LIG2        0.1287
     20    C       14.9210   10.1740  -10.5240 C.ar    2  LIG2        0.0154
     21    C       15.4540   10.5720   -9.3450 C.ar    2  LIG2        0.1354
     22    H       11.9570    5.7040  -13.4560 H       2  LIG2        0.0278
     23    H       10.4420    6.3830  -12.8160 H       2  LIG2        0.0278
     24    H       10.7600    6.4120  -14.5660 H       2  LIG2        0.0278
     25    H       15.1810    7.0780  -12.8520 H       2  LIG2        0.0278
     26    H       13.8140    6.1420  -12.2030 H       2  LIG2        0.0278
     27    H       14.1270    6.1610  -13.9550 H       2  LIG2        0.0278
     28    H       11.0570   11.1360  -13.5280 H       2  LIG2        0.0618
     29    H       10.0490    8.8970  -13.7470 H       2  LIG2        0.0620
     30    H       13.4770   11.3540  -13.0900 H       2  LIG2        0.0636
     31    H       19.5680    8.4050  -11.5740 H       2  LIG2        0.0496
     32    H       20.2260    9.9630  -12.1620 H       2  LIG2        0.0496
     33    H       15.8890    9.0940  -13.5330 H       2  LIG2        0.1536
     34    H       13.8510   10.1770  -10.6690 H       2  LIG2        0.0682
@<TRIPOS>BOND
     1    24     1    1
     2    27     2    1
     3    29     4    1
     4     1    22    1
     5     1     8    1
     6     1    23    1
     7     4     8   ar
     8     4     3   ar
     9    33    11    1
    10    28     3    1
    11     8     9   ar
    12     3     5   ar
    13     9    10   ar
    14     9     2    1
    15     5    30    1
    16     5    10   ar
    17    10    11    1
    18     2    25    1
    19     2    26    1
    20    11    19    1
    21    32     6    1
    22    31     6    1
    23    19    18   ar
    24    19    20   ar
    25    18    17   ar
    26     6     7    1
    27     6    14    1
    28    12     7   ar
    29     7    13   ar
    30    34    20    1
    31    20    21   ar
    32    17    14    1
    33    17    16   ar
    34    21    16   ar
    35    21    15    1
@<TRIPOS>MOLECULE
ligand_5f2d9ed02a_1_run_12.pdb
 34 35 0 0 0
SMALL
GASTEIGER

@<TRIPOS>ATOM
      1    C       10.1470    9.8260  -12.9760 C.3     2  LIG2       -0.0394
      2    C       12.9880   10.7570  -13.2750 C.3     2  LIG2       -0.0377
      3    C       12.0840    6.5700  -12.7680 C.ar    2  LIG2       -0.0597
      4    C       11.0520    7.4950  -12.7940 C.ar    2  LIG2       -0.0585
      5    C       13.3940    6.9990  -12.9020 C.ar    2  LIG2       -0.0402
      6    C       20.4520    9.7750   -9.9520 C.3     2  LIG2        0.1027
      7    C       21.8410    9.2820  -10.3660 C.2     2  LIG2        0.3661
      8    C       11.3190    8.8470  -12.9550 C.ar    2  LIG2       -0.0458
      9    C       12.6340    9.2780  -13.0890 C.ar    2  LIG2       -0.0264
     10    C       13.6580    8.3520  -13.0630 C.ar    2  LIG2        0.0356
     11    N       15.0160    8.8240  -13.2060 N.pl3   2  LIG2       -0.2991
     12    O       22.0660    8.0440  -10.4480 O.co2   2  LIG2       -0.2454
     13    O       22.7590   10.1100  -10.6190 O.co2   2  LIG2       -0.2454
     14    S       19.5620   10.3130  -11.4390 S.3     2  LIG2       -0.0745
     15   Cl       15.2010   10.4320   -8.2760 Cl      2  LIG2       -0.0618
     16    N       17.2220   10.2860  -10.0280 N.ar    2  LIG2       -0.2101
     17    C       17.7900   10.0260  -11.2210 C.ar    2  LIG2        0.1918
     18    N       17.0570    9.5510  -12.2480 N.ar    2  LIG2       -0.2067
     19    C       15.7690    9.3370  -12.0840 C.ar    2  LIG2        0.1287
     20    C       15.1830    9.5960  -10.8830 C.ar    2  LIG2        0.0154
     21    C       15.9330   10.0740   -9.8620 C.ar    2  LIG2        0.1354
     22    H       10.5220   10.8400  -13.1100 H       2  LIG2        0.0278
     23    H        9.4780    9.5750  -13.7990 H       2  LIG2        0.0278
     24    H        9.6020    9.7620  -12.0340 H       2  LIG2        0.0278
     25    H       14.0690   10.8650  -13.3580 H       2  LIG2        0.0278
     26    H       12.5150   11.1330  -14.1820 H       2  LIG2        0.0278
     27    H       12.6310   11.3270  -12.4170 H       2  LIG2        0.0278
     28    H       11.8650    5.5200  -12.6420 H       2  LIG2        0.0618
     29    H       10.0290    7.1650  -12.6880 H       2  LIG2        0.0620
     30    H       14.2010    6.2820  -12.8820 H       2  LIG2        0.0636
     31    H       20.5550   10.6170   -9.2670 H       2  LIG2        0.0496
     32    H       19.9050    8.9610   -9.4760 H       2  LIG2        0.0496
     33    H       15.4660    8.8010  -14.1100 H       2  LIG2        0.1536
     34    H       14.1260    9.4180  -10.7490 H       2  LIG2        0.0682
@<TRIPOS>BOND
     1    26     2    1
     2    33    11    1
     3    23     1    1
     4    25     2    1
     5     2     9    1
     6     2    27    1
     7    11    10    1
     8    11    19    1
     9    22     1    1
    10     9    10   ar
    11     9     8   ar
    12    10     5   ar
    13     1     8    1
    14     1    24    1
    15     8     4   ar
    16     5    30    1
    17     5     3   ar
    18     4     3   ar
    19     4    29    1
    20     3    28    1
    21    18    19   ar
    22    18    17   ar
    23    19    20   ar
    24    14    17    1
    25    14     6    1
    26    17    16   ar
    27    20    34    1
    28    20    21   ar
    29    13     7   ar
    30    12     7   ar
    31     7     6    1
    32    16    21   ar
    33     6    32    1
    34     6    31    1
    35    21    15    1
@<TRIPOS>MOLECULE
ligand_5f2d9ed02a_1_run_7.pdb
 34 35 0 0 0
SMALL
GASTEIGER

@<TRIPOS>ATOM
      1    C       11.1580   14.8560   -7.6750 C.3     2  LIG2       -0.0394
      2    C       14.1290   14.4070   -7.6860 C.3     2  LIG2       -0.0377
      3    C       11.3980   11.0730   -7.5110 C.ar    2  LIG2       -0.0597
      4    C       10.8980   12.3650   -7.5640 C.ar    2  LIG2       -0.0585
      5    C       12.7670   10.8650   -7.5140 C.ar    2  LIG2       -0.0402
      6    C       20.1140    9.3620  -10.9970 C.3     2  LIG2        0.1027
      7    C       21.5400    8.8610  -10.7530 C.2     2  LIG2        0.3661
      8    C       11.7590   13.4520   -7.6200 C.ar    2  LIG2       -0.0458
      9    C       13.1330   13.2450   -7.6210 C.ar    2  LIG2       -0.0264
     10    C       13.6240   11.9550   -7.5690 C.ar    2  LIG2        0.0356
     11    N       15.0560   11.7640   -7.5730 N.pl3   2  LIG2       -0.2991
     12    O       22.5110    9.6580  -10.8650 O.co2   2  LIG2       -0.2454
     13    O       21.7450    7.6530  -10.4500 O.co2   2  LIG2       -0.2454
     14    S       19.4940   10.1090   -9.4640 S.3     2  LIG2       -0.0745
     15   Cl       14.9260    9.5580  -12.2670 Cl      2  LIG2       -0.0618
     16    N       17.0610    9.9390  -10.6960 N.ar    2  LIG2       -0.2101
     17    C       17.7070   10.3510   -9.5890 C.ar    2  LIG2        0.1918
     18    N       17.0380   10.9430   -8.5780 N.ar    2  LIG2       -0.2067
     19    C       15.7380   11.1220   -8.6750 C.ar    2  LIG2        0.1287
     20    C       15.0750   10.7110   -9.7900 C.ar    2  LIG2        0.0154
     21    C       15.7600   10.1160  -10.7950 C.ar    2  LIG2        0.1354
     22    H       11.9600   15.5930   -7.7160 H       2  LIG2        0.0278
     23    H       10.5330   14.9500   -8.5630 H       2  LIG2        0.0278
     24    H       10.5510   15.0280   -6.7860 H       2  LIG2        0.0278
     25    H       15.1460   14.0150   -7.6750 H       2  LIG2        0.0278
     26    H       13.9680   14.9730   -8.6040 H       2  LIG2        0.0278
     27    H       13.9820   15.0610   -6.8270 H       2  LIG2        0.0278
     28    H       10.7200   10.2340   -7.4690 H       2  LIG2        0.0618
     29    H        9.8320   12.5320   -7.5620 H       2  LIG2        0.0620
     30    H       13.1600    9.8600   -7.4720 H       2  LIG2        0.0636
     31    H       19.4770    8.5230  -11.2750 H       2  LIG2        0.0496
     32    H       20.1240   10.1120  -11.7890 H       2  LIG2        0.0496
     33    H       15.6110   12.0830   -6.7910 H       2  LIG2        0.1536
     34    H       14.0080   10.8610   -9.8680 H       2  LIG2        0.0682
@<TRIPOS>BOND
     1    15    21    1
     2    32     6    1
     3    31     6    1
     4     6     7    1
     5     6    14    1
     6    12     7   ar
     7    21    16   ar
     8    21    20   ar
     9     7    13   ar
    10    16    17   ar
    11    34    20    1
    12    20    19   ar
    13    17    14    1
    14    17    18   ar
    15    19    18   ar
    16    19    11    1
    17    26     2    1
    18    23     1    1
    19    22     1    1
    20     2    25    1
    21     2     9    1
    22     2    27    1
    23     1     8    1
    24     1    24    1
    25     9     8   ar
    26     9    10   ar
    27     8     4   ar
    28    11    10    1
    29    11    33    1
    30    10     5   ar
    31     4    29    1
    32     4     3   ar
    33     5     3   ar
    34     5    30    1
    35     3    28    1
