# Top-energy pose of compounds ranked according to the score (given in kcal/mol).
@<TRIPOS>MOLECULE
3l3x_ligand_run_10.pdb
 51 54 0 0 0
SMALL
GASTEIGER

@<TRIPOS>ATOM
      1    C       27.1290    5.4610    3.9920 C.3     2  LIG2       -0.0404
      2    C       26.2780    6.7100    4.2840 C.3     2  LIG2        0.0063
      3    C       24.8820    6.5320    3.7450 C.2     2  LIG2        0.1337
      4    O       24.3490    7.4460    3.1300 O.2     2  LIG2       -0.2974
      5    C       24.2040    5.2260    4.0450 C.3     2  LIG2        0.0092
      6    C       25.1370    4.0490    3.7240 C.3     2  LIG2       -0.0287
      7    C       24.4000    2.7070    3.9720 C.3     2  LIG2       -0.0491
      8    C       25.2730    1.5340    3.5270 C.3     2  LIG2       -0.0494
      9    C       26.6760    1.5550    4.1640 C.3     2  LIG2       -0.0343
     10    C       27.3620    2.9280    3.9400 C.3     2  LIG2       -0.0322
     11    C       26.5010    4.1330    4.4130 C.3     2  LIG2       -0.0254
     12    C       28.7930    2.9430    4.5330 C.3     2  LIG2       -0.0489
     13    C       29.6630    1.7570    4.0980 C.3     2  LIG2       -0.0447
     14    C       28.9550    0.4020    4.2600 C.3     2  LIG2       -0.0030
     15    C       27.5750    0.4570    3.6130 C.3     2  LIG2       -0.0301
     16    C       27.1050   -1.0020    3.6490 C.3     2  LIG2       -0.0470
     17    C       28.3800   -1.8070    3.3560 C.3     2  LIG2       -0.0261
     18    C       29.5240   -0.7960    3.4650 C.3     2  LIG2        0.0609
     19    O       30.7280   -1.3680    4.0320 O.3     2  LIG2       -0.3912
     20    C       28.8610    0.0850    5.7500 C.3     2  LIG2       -0.0569
     21    C       26.3600    4.1350    5.9410 C.3     2  LIG2       -0.0590
     22    H       28.0900    5.6120    4.4790 H       2  LIG2        0.0275
     23    H       27.3610    5.4400    2.9240 H       2  LIG2        0.0275
     24    H       26.7320    7.5870    3.8260 H       2  LIG2        0.0342
     25    H       26.2120    6.8920    5.3550 H       2  LIG2        0.0342
     26    H       23.2980    5.1660    3.4400 H       2  LIG2        0.0344
     27    H       23.8880    5.2200    5.0880 H       2  LIG2        0.0344
     28    H       25.3280    4.0780    2.6470 H       2  LIG2        0.0310
     29    H       23.4500    2.6830    3.4370 H       2  LIG2        0.0268
     30    H       24.1230    2.6110    5.0230 H       2  LIG2        0.0268
     31    H       25.3760    1.5830    2.4410 H       2  LIG2        0.0268
     32    H       24.7750    0.5820    3.7150 H       2  LIG2        0.0268
     33    H       26.5370    1.4050    5.2330 H       2  LIG2        0.0306
     34    H       27.4670    3.0100    2.8560 H       2  LIG2        0.0309
     35    H       28.7480    2.9440    5.6210 H       2  LIG2        0.0268
     36    H       29.3140    3.8650    4.2930 H       2  LIG2        0.0268
     37    H       30.6250    1.7560    4.6050 H       2  LIG2        0.0271
     38    H       29.8980    1.8930    3.0460 H       2  LIG2        0.0271
     39    H       27.7040    0.7040    2.5540 H       2  LIG2        0.0310
     40    H       26.3480   -1.1860    2.8870 H       2  LIG2        0.0269
     41    H       26.6550   -1.2660    4.6060 H       2  LIG2        0.0269
     42    H       28.3540   -2.2750    2.3730 H       2  LIG2        0.0290
     43    H       28.4790   -2.6050    4.0900 H       2  LIG2        0.0290
     44    H       29.7770   -0.4540    2.4580 H       2  LIG2        0.0599
     45    H       31.4420   -0.7290    3.9060 H       2  LIG2        0.2098
     46    H       28.3520   -0.8470    5.9590 H       2  LIG2        0.0236
     47    H       29.8530    0.0070    6.1930 H       2  LIG2        0.0236
     48    H       28.3470    0.8520    6.3260 H       2  LIG2        0.0236
     49    H       26.0060    3.1880    6.3420 H       2  LIG2        0.0235
     50    H       27.3010    4.3620    6.4420 H       2  LIG2        0.0235
     51    H       25.6570    4.8830    6.2970 H       2  LIG2        0.0235
@<TRIPOS>BOND
     1    42    17    1
     2    31     8    1
     3    44    18    1
     4    39    15    1
     5    28     6    1
     6    34    10    1
     7    40    16    1
     8    23     1    1
     9    38    13    1
    10     4     3    2
    11    17    18    1
    12    17    16    1
    13    17    43    1
    14    29     7    1
    15    26     5    1
    16    18    19    1
    17    18    14    1
    18     8    32    1
    19     8     7    1
    20     8     9    1
    21    15    16    1
    22    15     9    1
    23    15    14    1
    24    16    41    1
    25     6     7    1
    26     6     5    1
    27     6    11    1
    28     3     5    1
    29     3     2    1
    30    24     2    1
    31    45    19    1
    32    10     9    1
    33    10    11    1
    34    10    12    1
    35     7    30    1
    36     1     2    1
    37     1    11    1
    38     1    22    1
    39     5    27    1
    40    13    14    1
    41    13    12    1
    42    13    37    1
    43     9    33    1
    44    14    20    1
    45     2    25    1
    46    36    12    1
    47    11    21    1
    48    12    35    1
    49    20    46    1
    50    20    47    1
    51    20    48    1
    52    21    51    1
    53    21    49    1
    54    21    50    1
