@<TRIPOS>MOLECULE
3l3x_ligand_run_10.pdb
 51 54 0 0 0
SMALL
GASTEIGER

@<TRIPOS>ATOM
      1    C       27.1290    5.4610    3.9920 C.3     2  LIG2       -0.0404
      2    C       26.2780    6.7100    4.2840 C.3     2  LIG2        0.0063
      3    C       24.8820    6.5320    3.7450 C.2     2  LIG2        0.1337
      4    O       24.3490    7.4460    3.1300 O.2     2  LIG2       -0.2974
      5    C       24.2040    5.2260    4.0450 C.3     2  LIG2        0.0092
      6    C       25.1370    4.0490    3.7240 C.3     2  LIG2       -0.0287
      7    C       24.4000    2.7070    3.9720 C.3     2  LIG2       -0.0491
      8    C       25.2730    1.5340    3.5270 C.3     2  LIG2       -0.0494
      9    C       26.6760    1.5550    4.1640 C.3     2  LIG2       -0.0343
     10    C       27.3620    2.9280    3.9400 C.3     2  LIG2       -0.0322
     11    C       26.5010    4.1330    4.4130 C.3     2  LIG2       -0.0254
     12    C       28.7930    2.9430    4.5330 C.3     2  LIG2       -0.0489
     13    C       29.6630    1.7570    4.0980 C.3     2  LIG2       -0.0447
     14    C       28.9550    0.4020    4.2600 C.3     2  LIG2       -0.0030
     15    C       27.5750    0.4570    3.6130 C.3     2  LIG2       -0.0301
     16    C       27.1050   -1.0020    3.6490 C.3     2  LIG2       -0.0470
     17    C       28.3800   -1.8070    3.3560 C.3     2  LIG2       -0.0261
     18    C       29.5240   -0.7960    3.4650 C.3     2  LIG2        0.0609
     19    O       30.7280   -1.3680    4.0320 O.3     2  LIG2       -0.3912
     20    C       28.8610    0.0850    5.7500 C.3     2  LIG2       -0.0569
     21    C       26.3600    4.1350    5.9410 C.3     2  LIG2       -0.0590
     22    H       28.0900    5.6120    4.4790 H       2  LIG2        0.0275
     23    H       27.3610    5.4400    2.9240 H       2  LIG2        0.0275
     24    H       26.7320    7.5870    3.8260 H       2  LIG2        0.0342
     25    H       26.2120    6.8920    5.3550 H       2  LIG2        0.0342
     26    H       23.2980    5.1660    3.4400 H       2  LIG2        0.0344
     27    H       23.8880    5.2200    5.0880 H       2  LIG2        0.0344
     28    H       25.3280    4.0780    2.6470 H       2  LIG2        0.0310
     29    H       23.4500    2.6830    3.4370 H       2  LIG2        0.0268
     30    H       24.1230    2.6110    5.0230 H       2  LIG2        0.0268
     31    H       25.3760    1.5830    2.4410 H       2  LIG2        0.0268
     32    H       24.7750    0.5820    3.7150 H       2  LIG2        0.0268
     33    H       26.5370    1.4050    5.2330 H       2  LIG2        0.0306
     34    H       27.4670    3.0100    2.8560 H       2  LIG2        0.0309
     35    H       28.7480    2.9440    5.6210 H       2  LIG2        0.0268
     36    H       29.3140    3.8650    4.2930 H       2  LIG2        0.0268
     37    H       30.6250    1.7560    4.6050 H       2  LIG2        0.0271
     38    H       29.8980    1.8930    3.0460 H       2  LIG2        0.0271
     39    H       27.7040    0.7040    2.5540 H       2  LIG2        0.0310
     40    H       26.3480   -1.1860    2.8870 H       2  LIG2        0.0269
     41    H       26.6550   -1.2660    4.6060 H       2  LIG2        0.0269
     42    H       28.3540   -2.2750    2.3730 H       2  LIG2        0.0290
     43    H       28.4790   -2.6050    4.0900 H       2  LIG2        0.0290
     44    H       29.7770   -0.4540    2.4580 H       2  LIG2        0.0599
     45    H       31.4420   -0.7290    3.9060 H       2  LIG2        0.2098
     46    H       28.3520   -0.8470    5.9590 H       2  LIG2        0.0236
     47    H       29.8530    0.0070    6.1930 H       2  LIG2        0.0236
     48    H       28.3470    0.8520    6.3260 H       2  LIG2        0.0236
     49    H       26.0060    3.1880    6.3420 H       2  LIG2        0.0235
     50    H       27.3010    4.3620    6.4420 H       2  LIG2        0.0235
     51    H       25.6570    4.8830    6.2970 H       2  LIG2        0.0235
@<TRIPOS>BOND
     1    42    17    1
     2    31     8    1
     3    44    18    1
     4    39    15    1
     5    28     6    1
     6    34    10    1
     7    40    16    1
     8    23     1    1
     9    38    13    1
    10     4     3    2
    11    17    18    1
    12    17    16    1
    13    17    43    1
    14    29     7    1
    15    26     5    1
    16    18    19    1
    17    18    14    1
    18     8    32    1
    19     8     7    1
    20     8     9    1
    21    15    16    1
    22    15     9    1
    23    15    14    1
    24    16    41    1
    25     6     7    1
    26     6     5    1
    27     6    11    1
    28     3     5    1
    29     3     2    1
    30    24     2    1
    31    45    19    1
    32    10     9    1
    33    10    11    1
    34    10    12    1
    35     7    30    1
    36     1     2    1
    37     1    11    1
    38     1    22    1
    39     5    27    1
    40    13    14    1
    41    13    12    1
    42    13    37    1
    43     9    33    1
    44    14    20    1
    45     2    25    1
    46    36    12    1
    47    11    21    1
    48    12    35    1
    49    20    46    1
    50    20    47    1
    51    20    48    1
    52    21    51    1
    53    21    49    1
    54    21    50    1
@<TRIPOS>MOLECULE
3l3x_ligand_run_10.pdb
 51 54 0 0 0
SMALL
GASTEIGER

@<TRIPOS>ATOM
      1    C       24.3830    4.8390    3.5570 C.3     2  LIG2       -0.0404
      2    C       24.1520    6.3460    3.3450 C.3     2  LIG2        0.0063
      3    C       24.9130    7.1430    4.3720 C.2     2  LIG2        0.1337
      4    O       24.3660    8.0780    4.9400 O.2     2  LIG2       -0.2974
      5    C       26.3450    6.7540    4.6040 C.3     2  LIG2        0.0092
      6    C       26.4650    5.2350    4.7980 C.3     2  LIG2       -0.0287
      7    C       27.9370    4.8560    5.1050 C.3     2  LIG2       -0.0491
      8    C       28.0430    3.3670    5.4330 C.3     2  LIG2       -0.0494
      9    C       27.4240    2.4680    4.3450 C.3     2  LIG2       -0.0343
     10    C       25.9710    2.9080    4.0290 C.3     2  LIG2       -0.0322
     11    C       25.8470    4.4140    3.6630 C.3     2  LIG2       -0.0254
     12    C       25.3220    1.9790    2.9710 C.3     2  LIG2       -0.0489
     13    C       25.4420    0.4840    3.2940 C.3     2  LIG2       -0.0447
     14    C       26.8720    0.0640    3.6720 C.3     2  LIG2       -0.0030
     15    C       27.4200    0.9980    4.7460 C.3     2  LIG2       -0.0301
     16    C       28.7280    0.3230    5.1740 C.3     2  LIG2       -0.0470
     17    C       28.3950   -1.1760    5.1450 C.3     2  LIG2       -0.0261
     18    C       27.0430   -1.2710    4.4330 C.3     2  LIG2        0.0609
     19    O       26.9270   -2.4490    3.5990 O.3     2  LIG2       -0.3912
     20    C       27.7310    0.0990    2.4110 C.3     2  LIG2       -0.0569
     21    C       26.5290    4.7070    2.3210 C.3     2  LIG2       -0.0590
     22    H       23.8840    4.3240    2.7370 H       2  LIG2        0.0275
     23    H       23.8390    4.5250    4.4510 H       2  LIG2        0.0275
     24    H       23.0910    6.5760    3.4230 H       2  LIG2        0.0342
     25    H       24.4850    6.6540    2.3550 H       2  LIG2        0.0342
     26    H       26.7010    7.2770    5.4920 H       2  LIG2        0.0344
     27    H       26.9490    7.1040    3.7680 H       2  LIG2        0.0344
     28    H       25.9080    4.9840    5.7050 H       2  LIG2        0.0310
     29    H       28.3230    5.4450    5.9380 H       2  LIG2        0.0268
     30    H       28.5830    5.1170    4.2660 H       2  LIG2        0.0268
     31    H       27.5210    3.1910    6.3760 H       2  LIG2        0.0268
     32    H       29.0770    3.0810    5.6310 H       2  LIG2        0.0268
     33    H       28.0300    2.5960    3.4500 H       2  LIG2        0.0306
     34    H       25.4270    2.7540    4.9630 H       2  LIG2        0.0309
     35    H       25.7740    2.1480    1.9950 H       2  LIG2        0.0268
     36    H       24.2740    2.2200    2.8190 H       2  LIG2        0.0268
     37    H       25.0560   -0.1340    2.4880 H       2  LIG2        0.0271
     38    H       24.7940    0.2800    4.1420 H       2  LIG2        0.0271
     39    H       26.7570    0.9460    5.6150 H       2  LIG2        0.0310
     40    H       29.0180    0.6350    6.1760 H       2  LIG2        0.0269
     41    H       29.5590    0.5780    4.5150 H       2  LIG2        0.0269
     42    H       28.3490   -1.6070    6.1450 H       2  LIG2        0.0290
     43    H       29.1720   -1.7090    4.6000 H       2  LIG2        0.0290
     44    H       26.2590   -1.3390    5.1910 H       2  LIG2        0.0599
     45    H       26.1580   -2.3280    3.0270 H       2  LIG2        0.2098
     46    H       28.7660   -0.1620    2.5890 H       2  LIG2        0.0236
     47    H       27.3550   -0.6030    1.6660 H       2  LIG2        0.0236
     48    H       27.7390    1.0680    1.9160 H       2  LIG2        0.0236
     49    H       27.5550    4.3500    2.2710 H       2  LIG2        0.0235
     50    H       25.9960    4.2610    1.4810 H       2  LIG2        0.0235
     51    H       26.5790    5.7690    2.0990 H       2  LIG2        0.0235
@<TRIPOS>BOND
     1    50    21    1
     2    47    20    1
     3    48    20    1
     4    35    12    1
     5    51    21    1
     6    49    21    1
     7    21    11    1
     8    25     2    1
     9    20    46    1
    10    20    14    1
    11    37    13    1
    12    22     1    1
    13    36    12    1
    14    12    13    1
    15    12    10    1
    16    45    19    1
    17    13    14    1
    18    13    38    1
    19     2    24    1
    20     2     1    1
    21     2     3    1
    22    33     9    1
    23     1    11    1
    24     1    23    1
    25    19    18    1
    26    11    10    1
    27    11     6    1
    28    14    18    1
    29    14    15    1
    30    27     5    1
    31    10     9    1
    32    10    34    1
    33    30     7    1
    34     9    15    1
    35     9     8    1
    36     3     5    1
    37     3     4    2
    38    18    17    1
    39    18    44    1
    40    41    16    1
    41    43    17    1
    42     5     6    1
    43     5    26    1
    44    15    16    1
    45    15    39    1
    46     6     7    1
    47     6    28    1
    48     7     8    1
    49     7    29    1
    50    17    16    1
    51    17    42    1
    52    16    40    1
    53     8    32    1
    54     8    31    1
@<TRIPOS>MOLECULE
3l3x_ligand_run_17.pdb
 51 54 0 0 0
SMALL
GASTEIGER

@<TRIPOS>ATOM
      1    C       26.7450   -0.8050    3.1680 C.3     2  LIG2       -0.0404
      2    C       27.5670   -2.1010    3.2850 C.3     2  LIG2        0.0063
      3    C       29.0080   -1.8430    2.9300 C.2     2  LIG2        0.1337
      4    O       29.6020   -2.6230    2.1990 O.2     2  LIG2       -0.2974
      5    C       29.6500   -0.6350    3.5510 C.3     2  LIG2        0.0092
      6    C       28.7490    0.5980    3.3840 C.3     2  LIG2       -0.0287
      7    C       29.4540    1.8520    3.9660 C.3     2  LIG2       -0.0491
      8    C       28.6260    3.1040    3.6840 C.3     2  LIG2       -0.0494
      9    C       27.1670    2.9790    4.1650 C.3     2  LIG2       -0.0343
     10    C       26.5100    1.6910    3.6040 C.3     2  LIG2       -0.0322
     11    C       27.3240    0.4010    3.9070 C.3     2  LIG2       -0.0254
     12    C       25.0280    1.5820    4.0410 C.3     2  LIG2       -0.0489
     13    C       24.2010    2.8450    3.7710 C.3     2  LIG2       -0.0447
     14    C       24.8860    4.1280    4.2690 C.3     2  LIG2       -0.0030
     15    C       26.3220    4.1810    3.7610 C.3     2  LIG2       -0.0301
     16    C       26.7820    5.5940    4.1340 C.3     2  LIG2       -0.0470
     17    C       25.5400    6.4640    3.8880 C.3     2  LIG2       -0.0261
     18    C       24.3940    5.4710    3.6790 C.3     2  LIG2        0.0609
     19    O       23.1390    5.9370    4.2300 O.3     2  LIG2       -0.3912
     20    C       24.8320    4.1390    5.7940 C.3     2  LIG2       -0.0569
     21    C       27.3140    0.0910    5.4090 C.3     2  LIG2       -0.0590
     22    H       25.7410   -1.0340    3.5200 H       2  LIG2        0.0275
     23    H       26.6180   -0.5660    2.1100 H       2  LIG2        0.0275
     24    H       27.1620   -2.8600    2.6190 H       2  LIG2        0.0342
     25    H       27.5270   -2.4950    4.2990 H       2  LIG2        0.0342
     26    H       30.6100   -0.4690    3.0610 H       2  LIG2        0.0344
     27    H       29.8610   -0.8420    4.5990 H       2  LIG2        0.0344
     28    H       28.6650    0.7890    2.3100 H       2  LIG2        0.0310
     29    H       30.4520    1.9660    3.5420 H       2  LIG2        0.0268
     30    H       29.6260    1.7310    5.0370 H       2  LIG2        0.0268
     31    H       28.6290    3.2750    2.6050 H       2  LIG2        0.0268
     32    H       29.0990    3.9910    4.1070 H       2  LIG2        0.0268
     33    H       27.1990    2.9110    5.2510 H       2  LIG2        0.0306
     34    H       26.5130    1.8300    2.5210 H       2  LIG2        0.0309
     35    H       24.9650    1.3620    5.1050 H       2  LIG2        0.0268
     36    H       24.5360    0.7350    3.5710 H       2  LIG2        0.0268
     37    H       23.1940    2.7610    4.1710 H       2  LIG2        0.0271
     38    H       24.0710    2.9260    2.6940 H       2  LIG2        0.0271
     39    H       26.2990    4.1530    2.6660 H       2  LIG2        0.0310
     40    H       27.6100    5.9150    3.5020 H       2  LIG2        0.0269
     41    H       27.1360    5.6550    5.1650 H       2  LIG2        0.0269
     42    H       25.6610    7.1190    3.0250 H       2  LIG2        0.0290
     43    H       25.3670    7.1000    4.7530 H       2  LIG2        0.0290
     44    H       24.2420    5.3410    2.6050 H       2  LIG2        0.0599
     45    H       23.3210    6.3050    5.1050 H       2  LIG2        0.2098
     46    H       25.3150    5.0020    6.2350 H       2  LIG2        0.0236
     47    H       23.8010    4.1430    6.1460 H       2  LIG2        0.0236
     48    H       25.2890    3.2630    6.2510 H       2  LIG2        0.0236
     49    H       27.6240    0.9320    6.0250 H       2  LIG2        0.0235
     50    H       26.3290   -0.2160    5.7620 H       2  LIG2        0.0235
     51    H       27.9810   -0.7240    5.6740 H       2  LIG2        0.0235
@<TRIPOS>BOND
     1    23     1    1
     2     4     3    2
     3    28     6    1
     4    34    10    1
     5    44    18    1
     6    31     8    1
     7    24     2    1
     8    39    15    1
     9    38    13    1
    10     3     2    1
    11     3     5    1
    12    42    17    1
    13    26     5    1
    14     1     2    1
    15     1    22    1
    16     1    11    1
    17     2    25    1
    18     6     5    1
    19     6    11    1
    20     6     7    1
    21    40    16    1
    22    29     7    1
    23     5    27    1
    24    36    12    1
    25    10    11    1
    26    10    12    1
    27    10     9    1
    28    18    17    1
    29    18    19    1
    30    18    14    1
    31     8     7    1
    32     8    32    1
    33     8     9    1
    34    15    16    1
    35    15     9    1
    36    15    14    1
    37    13    12    1
    38    13    37    1
    39    13    14    1
    40    17    16    1
    41    17    43    1
    42    11    21    1
    43     7    30    1
    44    12    35    1
    45    16    41    1
    46     9    33    1
    47    19    45    1
    48    14    20    1
    49    21    51    1
    50    21    50    1
    51    21    49    1
    52    20    47    1
    53    20    46    1
    54    20    48    1
@<TRIPOS>MOLECULE
3l3x_ligand_run_20.pdb
 51 54 0 0 0
SMALL
GASTEIGER

@<TRIPOS>ATOM
      1    C       28.9680    0.9140    4.6260 C.3     2  LIG2       -0.0404
      2    C       29.7720   -0.3280    4.2000 C.3     2  LIG2        0.0063
      3    C       28.8450   -1.4830    3.9230 C.2     2  LIG2        0.1337
      4    O       29.1170   -2.5950    4.3550 O.2     2  LIG2       -0.2974
      5    C       27.6410   -1.1940    3.0740 C.3     2  LIG2        0.0092
      6    C       26.9160    0.0630    3.5790 C.3     2  LIG2       -0.0287
      7    C       25.6360    0.3100    2.7370 C.3     2  LIG2       -0.0491
      8    C       24.8390    1.4770    3.3170 C.3     2  LIG2       -0.0494
      9    C       25.6820    2.7560    3.4850 C.3     2  LIG2       -0.0343
     10    C       26.9760    2.4600    4.2870 C.3     2  LIG2       -0.0322
     11    C       27.8180    1.2950    3.6950 C.3     2  LIG2       -0.0254
     12    C       27.8070    3.7500    4.5040 C.3     2  LIG2       -0.0489
     13    C       27.0020    4.9250    5.0720 C.3     2  LIG2       -0.0447
     14    C       25.6870    5.1730    4.3150 C.3     2  LIG2       -0.0030
     15    C       24.9100    3.8680    4.1830 C.3     2  LIG2       -0.0301
     16    C       23.5520    4.3140    3.6310 C.3     2  LIG2       -0.0470
     17    C       23.2770    5.6400    4.3550 C.3     2  LIG2       -0.0261
     18    C       24.5990    6.0050    5.0340 C.3     2  LIG2        0.0609
     19    O       24.8510    7.4310    5.0450 O.3     2  LIG2       -0.3912
     20    C       26.0240    5.7630    2.9490 C.3     2  LIG2       -0.0569
     21    C       28.4120    1.6870    2.3360 C.3     2  LIG2       -0.0590
     22    H       29.6790    1.7320    4.7250 H       2  LIG2        0.0275
     23    H       28.5890    0.7540    5.6380 H       2  LIG2        0.0275
     24    H       30.4710   -0.6070    4.9860 H       2  LIG2        0.0342
     25    H       30.3490   -0.1260    3.3000 H       2  LIG2        0.0342
     26    H       26.9760   -2.0570    3.1200 H       2  LIG2        0.0344
     27    H       27.9530   -1.0910    2.0350 H       2  LIG2        0.0344
     28    H       26.5580   -0.1590    4.5880 H       2  LIG2        0.0310
     29    H       25.0130   -0.5840    2.7090 H       2  LIG2        0.0268
     30    H       25.8950    0.4950    1.6930 H       2  LIG2        0.0268
     31    H       24.4590    1.1730    4.2950 H       2  LIG2        0.0268
     32    H       23.9460    1.6760    2.7230 H       2  LIG2        0.0268
     33    H       25.9590    3.0830    2.4840 H       2  LIG2        0.0306
     34    H       26.6240    2.1410    5.2700 H       2  LIG2        0.0309
     35    H       28.2520    4.0720    3.5650 H       2  LIG2        0.0268
     36    H       28.6630    3.5690    5.1490 H       2  LIG2        0.0268
     37    H       27.5970    5.8330    5.1250 H       2  LIG2        0.0271
     38    H       26.7590    4.6860    6.1040 H       2  LIG2        0.0271
     39    H       24.7130    3.4840    5.1900 H       2  LIG2        0.0310
     40    H       22.7780    3.5810    3.8590 H       2  LIG2        0.0269
     41    H       23.5640    4.4260    2.5460 H       2  LIG2        0.0269
     42    H       22.4680    5.5530    5.0800 H       2  LIG2        0.0290
     43    H       22.9780    6.3940    3.6290 H       2  LIG2        0.0290
     44    H       24.5510    5.6830    6.0770 H       2  LIG2        0.0599
     45    H       25.6240    7.5870    5.6040 H       2  LIG2        0.2098
     46    H       25.1530    5.9490    2.3350 H       2  LIG2        0.0236
     47    H       26.5420    6.7160    3.0550 H       2  LIG2        0.0236
     48    H       26.6900    5.1370    2.3580 H       2  LIG2        0.0236
     49    H       27.6710    2.0640    1.6350 H       2  LIG2        0.0235
     50    H       29.1820    2.4530    2.4280 H       2  LIG2        0.0235
     51    H       28.8930    0.8540    1.8320 H       2  LIG2        0.0235
@<TRIPOS>BOND
     1    49    21    1
     2    30     7    1
     3    51    21    1
     4    27     5    1
     5    46    20    1
     6    21    50    1
     7    21    11    1
     8    48    20    1
     9    33     9    1
    10    41    16    1
    11    29     7    1
    12    32     8    1
    13     7     8    1
    14     7     6    1
    15    20    47    1
    16    20    14    1
    17     5    26    1
    18     5     6    1
    19     5     3    1
    20    25     2    1
    21     8     9    1
    22     8    31    1
    23     9    15    1
    24     9    10    1
    25    35    12    1
    26     6    11    1
    27     6    28    1
    28    43    17    1
    29    16    40    1
    30    16    15    1
    31    16    17    1
    32    11    10    1
    33    11     1    1
    34     3     2    1
    35     3     4    2
    36    15    14    1
    37    15    39    1
    38     2     1    1
    39     2    24    1
    40    10    12    1
    41    10    34    1
    42    14    18    1
    43    14    13    1
    44    17    18    1
    45    17    42    1
    46    12    13    1
    47    12    36    1
    48     1    22    1
    49     1    23    1
    50    18    19    1
    51    18    44    1
    52    19    45    1
    53    13    37    1
    54    13    38    1
@<TRIPOS>MOLECULE
3l3x_ligand_run_18.pdb
 51 54 0 0 0
SMALL
GASTEIGER

@<TRIPOS>ATOM
      1    C       29.9850   -0.4430    3.1210 C.3     2  LIG2       -0.0404
      2    C       30.5830   -1.7910    2.6780 C.3     2  LIG2        0.0063
      3    C       29.8830   -2.9300    3.3730 C.2     2  LIG2        0.1337
      4    O       30.5400   -3.8440    3.8490 O.2     2  LIG2       -0.2974
      5    C       28.3820   -2.8860    3.3950 C.3     2  LIG2        0.0092
      6    C       27.8900   -1.5020    3.8440 C.3     2  LIG2       -0.0287
      7    C       26.3410   -1.4930    3.9300 C.3     2  LIG2       -0.0491
      8    C       25.8510   -0.1640    4.5050 C.3     2  LIG2       -0.0494
      9    C       26.4000    1.0580    3.7440 C.3     2  LIG2       -0.0343
     10    C       27.9460    0.9890    3.6350 C.3     2  LIG2       -0.0322
     11    C       28.4630   -0.3440    3.0240 C.3     2  LIG2       -0.0254
     12    C       28.5120    2.2390    2.9150 C.3     2  LIG2       -0.0489
     13    C       28.0070    3.5710    3.4830 C.3     2  LIG2       -0.0447
     14    C       26.4800    3.6110    3.6530 C.3     2  LIG2       -0.0030
     15    C       26.0090    2.3720    4.4070 C.3     2  LIG2       -0.0301
     16    C       24.5340    2.6690    4.6970 C.3     2  LIG2       -0.0470
     17    C       24.5150    4.1720    5.0140 C.3     2  LIG2       -0.0261
     18    C       25.8990    4.6830    4.6050 C.3     2  LIG2        0.0609
     19    O       25.8630    6.0180    4.0450 O.3     2  LIG2       -0.3912
     20    C       25.8460    3.6960    2.2680 C.3     2  LIG2       -0.0569
     21    C       28.0710   -0.4540    1.5450 C.3     2  LIG2       -0.0590
     22    H       30.4670    0.3290    2.5240 H       2  LIG2        0.0275
     23    H       30.3060   -0.2390    4.1450 H       2  LIG2        0.0275
     24    H       31.6450   -1.8230    2.9130 H       2  LIG2        0.0342
     25    H       30.4780   -1.9260    1.6030 H       2  LIG2        0.0342
     26    H       28.0290   -3.6540    4.0850 H       2  LIG2        0.0344
     27    H       28.0030   -3.1490    2.4080 H       2  LIG2        0.0344
     28    H       28.2360   -1.3580    4.8720 H       2  LIG2        0.0310
     29    H       25.9830   -2.3160    4.5480 H       2  LIG2        0.0268
     30    H       25.9020   -1.6780    2.9490 H       2  LIG2        0.0268
     31    H       26.1750   -0.1080    5.5470 H       2  LIG2        0.0268
     32    H       24.7620   -0.1350    4.5520 H       2  LIG2        0.0268
     33    H       25.9770    1.0200    2.7420 H       2  LIG2        0.0306
     34    H       28.2980    1.0320    4.6680 H       2  LIG2        0.0309
     35    H       28.2590    2.2090    1.8570 H       2  LIG2        0.0268
     36    H       29.5990    2.2450    2.9230 H       2  LIG2        0.0268
     37    H       28.3560    4.4170    2.8970 H       2  LIG2        0.0271
     38    H       28.4610    3.7010    4.4630 H       2  LIG2        0.0271
     39    H       26.5080    2.3550    5.3820 H       2  LIG2        0.0310
     40    H       24.1790    2.0900    5.5490 H       2  LIG2        0.0269
     41    H       23.8880    2.4130    3.8550 H       2  LIG2        0.0269
     42    H       24.3140    4.3680    6.0670 H       2  LIG2        0.0290
     43    H       23.7250    4.6530    4.4410 H       2  LIG2        0.0290
     44    H       26.5270    4.7290    5.4980 H       2  LIG2        0.0599
     45    H       25.5540    6.6170    4.7370 H       2  LIG2        0.2098
     46    H       24.7640    3.7050    2.2910 H       2  LIG2        0.0236
     47    H       26.1570    4.6060    1.7540 H       2  LIG2        0.0236
     48    H       26.1330    2.8800    1.6070 H       2  LIG2        0.0236
     49    H       27.0090   -0.3000    1.3680 H       2  LIG2        0.0235
     50    H       28.6040    0.2630    0.9210 H       2  LIG2        0.0235
     51    H       28.2980   -1.4280    1.1220 H       2  LIG2        0.0235
@<TRIPOS>BOND
     1    50    21    1
     2    51    21    1
     3    49    21    1
     4    21    11    1
     5    25     2    1
     6    48    20    1
     7    47    20    1
     8    35    12    1
     9    20    46    1
    10    20    14    1
    11    27     5    1
    12    22     1    1
    13     2    24    1
    14     2     1    1
    15     2     3    1
    16    33     9    1
    17    37    13    1
    18    12    36    1
    19    12    13    1
    20    12    10    1
    21    30     7    1
    22    11     1    1
    23    11    10    1
    24    11     6    1
    25     1    23    1
    26     3     5    1
    27     3     4    2
    28     5     6    1
    29     5    26    1
    30    13    14    1
    31    13    38    1
    32    10     9    1
    33    10    34    1
    34    14    15    1
    35    14    18    1
    36     9    15    1
    37     9     8    1
    38     6     7    1
    39     6    28    1
    40    41    16    1
    41     7     8    1
    42     7    29    1
    43    19    18    1
    44    19    45    1
    45    15    16    1
    46    15    39    1
    47    43    17    1
    48     8    32    1
    49     8    31    1
    50    18    17    1
    51    18    44    1
    52    16    17    1
    53    16    40    1
    54    17    42    1
@<TRIPOS>MOLECULE
3l3x_ligand_run_8.pdb
 51 54 0 0 0
SMALL
GASTEIGER

@<TRIPOS>ATOM
      1    C       23.8880    2.9390    3.3160 C.3     2  LIG2       -0.0404
      2    C       22.8730    4.0620    3.0310 C.3     2  LIG2        0.0063
      3    C       22.8640    5.0590    4.1610 C.2     2  LIG2        0.1337
      4    O       21.7980    5.4670    4.6000 O.2     2  LIG2       -0.2974
      5    C       24.2010    5.5310    4.6560 C.3     2  LIG2        0.0092
      6    C       25.1360    4.3370    4.9030 C.3     2  LIG2       -0.0287
      7    C       26.4880    4.8330    5.4800 C.3     2  LIG2       -0.0491
      8    C       27.3710    3.6440    5.8550 C.3     2  LIG2       -0.0494
      9    C       27.5630    2.6500    4.6930 C.3     2  LIG2       -0.0343
     10    C       26.1930    2.2140    4.1100 C.3     2  LIG2       -0.0322
     11    C       25.2910    3.4100    3.6950 C.3     2  LIG2       -0.0254
     12    C       26.3730    1.1760    2.9740 C.3     2  LIG2       -0.0489
     13    C       27.2730   -0.0090    3.3470 C.3     2  LIG2       -0.0447
     14    C       28.6020    0.4240    3.9870 C.3     2  LIG2       -0.0030
     15    C       28.3360    1.4080    5.1200 C.3     2  LIG2       -0.0301
     16    C       29.7050    1.5580    5.7930 C.3     2  LIG2       -0.0470
     17    C       30.2990    0.1430    5.7380 C.3     2  LIG2       -0.0261
     18    C       29.3810   -0.6390    4.7960 C.3     2  LIG2        0.0609
     19    O       30.0960   -1.6000    3.9820 O.3     2  LIG2       -0.3912
     20    C       29.4760    1.0450    2.9010 C.3     2  LIG2       -0.0569
     21    C       25.8870    4.1510    2.4910 C.3     2  LIG2       -0.0590
     22    H       23.9130    2.3050    2.4320 H       2  LIG2        0.0275
     23    H       23.4860    2.2980    4.1040 H       2  LIG2        0.0275
     24    H       21.8770    3.6430    2.9120 H       2  LIG2        0.0342
     25    H       23.1250    4.5870    2.1120 H       2  LIG2        0.0342
     26    H       24.0450    6.0860    5.5820 H       2  LIG2        0.0344
     27    H       24.6210    6.2310    3.9350 H       2  LIG2        0.0344
     28    H       24.6850    3.7390    5.7000 H       2  LIG2        0.0310
     29    H       26.3270    5.4630    6.3550 H       2  LIG2        0.0268
     30    H       26.9930    5.4840    4.7650 H       2  LIG2        0.0268
     31    H       26.9000    3.1250    6.6920 H       2  LIG2        0.0268
     32    H       28.3340    3.9790    6.2430 H       2  LIG2        0.0268
     33    H       28.1210    3.1740    3.9200 H       2  LIG2        0.0306
     34    H       25.6930    1.7000    4.9340 H       2  LIG2        0.0309
     35    H       26.7970    1.6530    2.0930 H       2  LIG2        0.0268
     36    H       25.4160    0.7930    2.6300 H       2  LIG2        0.0268
     37    H       27.4460   -0.6660    2.4990 H       2  LIG2        0.0271
     38    H       26.7310   -0.6160    4.0680 H       2  LIG2        0.0271
     39    H       27.6930    0.9160    5.8570 H       2  LIG2        0.0310
     40    H       29.5980    1.8930    6.8240 H       2  LIG2        0.0269
     41    H       30.3330    2.2940    5.2890 H       2  LIG2        0.0269
     42    H       30.3480   -0.3210    6.7220 H       2  LIG2        0.0290
     43    H       31.3170    0.1930    5.3550 H       2  LIG2        0.0290
     44    H       28.6670   -1.2040    5.4020 H       2  LIG2        0.0599
     45    H       30.7800   -1.1200    3.4970 H       2  LIG2        0.2098
     46    H       30.4290    1.4020    3.2690 H       2  LIG2        0.0236
     47    H       29.6940    0.3200    2.1160 H       2  LIG2        0.0236
     48    H       29.0070    1.8860    2.3940 H       2  LIG2        0.0236
     49    H       26.9250    4.4430    2.6360 H       2  LIG2        0.0235
     50    H       25.8490    3.5560    1.5790 H       2  LIG2        0.0235
     51    H       25.3560    5.0690    2.2580 H       2  LIG2        0.0235
@<TRIPOS>BOND
     1    50    21    1
     2    35    12    1
     3    25     2    1
     4    47    20    1
     5    51    21    1
     6    48    20    1
     7    22     1    1
     8    21    49    1
     9    21    11    1
    10    37    13    1
    11    36    12    1
    12    20    46    1
    13    20    14    1
    14    24     2    1
    15    12    13    1
    16    12    10    1
    17     2     1    1
    18     2     3    1
    19     1    11    1
    20     1    23    1
    21    13    14    1
    22    13    38    1
    23    45    19    1
    24    11    10    1
    25    11     6    1
    26    33     9    1
    27    27     5    1
    28    19    18    1
    29    14    18    1
    30    14    15    1
    31    10     9    1
    32    10    34    1
    33     3     4    2
    34     3     5    1
    35     5     6    1
    36     5    26    1
    37     9    15    1
    38     9     8    1
    39    30     7    1
    40    18    44    1
    41    18    17    1
    42     6     7    1
    43     6    28    1
    44    15    16    1
    45    15    39    1
    46    41    16    1
    47    43    17    1
    48     7     8    1
    49     7    29    1
    50    17    16    1
    51    17    42    1
    52    16    40    1
    53     8    32    1
    54     8    31    1
