@<TRIPOS>MOLECULE
2pnu_ligand_run_3.pdb
 68 72 0 0 0
SMALL
GASTEIGER

@<TRIPOS>ATOM
      1    C       26.3070    6.6860    4.4540 C.3     2  LIG2        0.0063
      2    O       31.3790   -0.9610    4.6050 O.3     2  LIG2       -0.3912
      3    C       24.9340    6.3930    3.8360 C.2     2  LIG2        0.1337
      4    O       24.3480    7.2550    3.1790 O.2     2  LIG2       -0.2974
      5    C       24.3150    5.0030    4.0380 C.3     2  LIG2        0.0092
      6    O       30.1940    0.6280    8.2660 O.3     2  LIG2       -0.3752
      7    C       25.3710    3.9100    3.7610 C.3     2  LIG2       -0.0287
      8    C       26.7150    4.1320    4.5410 C.3     2  LIG2       -0.0254
      9    C       27.2940    5.5280    4.1620 C.3     2  LIG2       -0.0404
     10    C       24.7820    2.5070    4.0270 C.3     2  LIG2       -0.0491
     11    C       25.7830    1.4200    3.5950 C.3     2  LIG2       -0.0494
     12    C       27.1410    1.5800    4.3280 C.3     2  LIG2       -0.0343
     13    C       27.7230    3.0220    4.0960 C.3     2  LIG2       -0.0322
     14    C       28.1760    0.5640    3.8040 C.3     2  LIG2       -0.0298
     15    C       29.5230    0.6700    4.5230 C.3     2  LIG2        0.0019
     16    C       30.1190    2.0670    4.2320 C.3     2  LIG2       -0.0444
     17    C       29.1380    3.1710    4.7430 C.3     2  LIG2       -0.0489
     18    C       27.8110   -0.9190    3.8860 C.3     2  LIG2       -0.0470
     19    C       29.1790   -1.6220    3.6920 C.3     2  LIG2       -0.0260
     20    C       30.2470   -0.5030    3.8550 C.3     2  LIG2        0.0612
     21    C       26.4810    4.0620    6.0750 C.3     2  LIG2       -0.0590
     22    C       29.3450    0.3970    6.0610 C.3     2  LIG2       -0.0212
     23    C       30.5650    0.8230    6.8990 C.3     2  LIG2        0.0487
     24    C       31.2090    1.0720    9.1770 C.3     2  LIG2        0.0729
     25    C       30.8700    1.1840   10.5250 C.ar    2  LIG2       -0.0165
     26    C       31.2480    2.3150   11.2760 C.ar    2  LIG2       -0.0209
     27    C       30.8080    2.4480   12.6120 C.ar    2  LIG2        0.1265
     28    C       30.0030    1.4570   13.1910 C.ar    2  LIG2        0.0088
     29    C       29.6320    0.3320   12.4400 C.ar    2  LIG2        0.1265
     30    C       30.0650    0.1940   11.1140 C.ar    2  LIG2       -0.0209
     31    F       28.8230   -0.6020   12.9850 F       2  LIG2       -0.2054
     32    F       31.1270    3.5540   13.3330 F       2  LIG2       -0.2054
     33    H       26.1660    6.8080    5.5270 H       2  LIG2        0.0342
     34    H       26.6870    7.6290    4.0630 H       2  LIG2        0.0342
     35    H       32.0930   -0.3230    4.4780 H       2  LIG2        0.2098
     36    H       23.4700    4.8970    3.3560 H       2  LIG2        0.0344
     37    H       23.9180    4.9400    5.0500 H       2  LIG2        0.0344
     38    H       25.6100    3.9520    2.6950 H       2  LIG2        0.0310
     39    H       28.2120    5.7450    4.7060 H       2  LIG2        0.0275
     40    H       27.5720    5.5470    3.1050 H       2  LIG2        0.0275
     41    H       23.8520    2.3820    3.4700 H       2  LIG2        0.0268
     42    H       24.4910    2.3900    5.0720 H       2  LIG2        0.0268
     43    H       25.9410    1.4990    2.5180 H       2  LIG2        0.0268
     44    H       25.3710    0.4210    3.7430 H       2  LIG2        0.0268
     45    H       26.9000    1.4170    5.3720 H       2  LIG2        0.0306
     46    H       27.8540    3.1100    3.0150 H       2  LIG2        0.0309
     47    H       28.3220    0.7910    2.7430 H       2  LIG2        0.0310
     48    H       30.2700    2.1790    3.1630 H       2  LIG2        0.0272
     49    H       31.1100    2.1900    4.6620 H       2  LIG2        0.0272
     50    H       29.0480    3.1510    5.8250 H       2  LIG2        0.0268
     51    H       29.5780    4.1400    4.5230 H       2  LIG2        0.0268
     52    H       27.1080   -1.2090    3.1050 H       2  LIG2        0.0269
     53    H       27.3560   -1.1730    4.8450 H       2  LIG2        0.0269
     54    H       29.2540   -2.0880    2.7100 H       2  LIG2        0.0290
     55    H       29.2930   -2.4120    4.4340 H       2  LIG2        0.0290
     56    H       30.5900   -0.1990    2.8630 H       2  LIG2        0.0599
     57    H       26.9850    4.8740    6.5950 H       2  LIG2        0.0235
     58    H       25.4330    4.1450    6.3550 H       2  LIG2        0.0235
     59    H       26.8390    3.1530    6.5510 H       2  LIG2        0.0235
     60    H       29.1030   -0.6420    6.2670 H       2  LIG2        0.0294
     61    H       28.5290    0.9600    6.4940 H       2  LIG2        0.0294
     62    H       31.4510    0.2310    6.6700 H       2  LIG2        0.0560
     63    H       30.8200    1.8710    6.7610 H       2  LIG2        0.0560
     64    H       31.5770    2.0480    8.8490 H       2  LIG2        0.0610
     65    H       32.0590    0.3930    9.1140 H       2  LIG2        0.0610
     66    H       31.8490    3.0980   10.8360 H       2  LIG2        0.0650
     67    H       29.6960    1.5530   14.2100 H       2  LIG2        0.0675
     68    H       29.7580   -0.6760   10.5500 H       2  LIG2        0.0650
@<TRIPOS>BOND
     1    43    11    1
     2    38     7    1
     3    54    19    1
     4    47    14    1
     5    56    20    1
     6    46    13    1
     7    52    18    1
     8    40     9    1
     9    48    16    1
    10     4     3    2
    11    36     5    1
    12    41    10    1
    13    11    44    1
    14    11    10    1
    15    11    12    1
    16    19    20    1
    17    19    18    1
    18    19    55    1
    19     7    10    1
    20     7     5    1
    21     7     8    1
    22    14    18    1
    23    14    12    1
    24    14    15    1
    25     3     5    1
    26     3     1    1
    27    20    15    1
    28    20     2    1
    29    18    53    1
    30    10    42    1
    31     5    37    1
    32    34     1    1
    33    13    12    1
    34    13     8    1
    35    13    17    1
    36     9     1    1
    37     9     8    1
    38     9    39    1
    39    16    15    1
    40    16    49    1
    41    16    17    1
    42    12    45    1
    43     1    33    1
    44    35     2    1
    45    51    17    1
    46    15    22    1
    47     8    21    1
    48    17    50    1
    49    22    60    1
    50    22    61    1
    51    22    23    1
    52    21    58    1
    53    21    59    1
    54    21    57    1
    55    62    23    1
    56    63    23    1
    57    23     6    1
    58     6    24    1
    59    64    24    1
    60    65    24    1
    61    24    25    1
    62    25    30   ar
    63    25    26   ar
    64    68    30    1
    65    66    26    1
    66    30    29   ar
    67    26    27   ar
    68    29    31    1
    69    29    28   ar
    70    27    28   ar
    71    27    32    1
    72    28    67    1
@<TRIPOS>MOLECULE
2pnu_ligand_run_15.pdb
 68 72 0 0 0
SMALL
GASTEIGER

@<TRIPOS>ATOM
      1    C       27.0220    6.9510    4.7860 C.3     2  LIG2        0.0063
      2    O       29.8600   -1.7710    4.4710 O.3     2  LIG2       -0.3912
      3    C       25.6480    7.0800    4.1140 C.2     2  LIG2        0.1337
      4    O       25.3420    8.1100    3.5110 O.2     2  LIG2       -0.2974
      5    C       24.6730    5.8980    4.1940 C.3     2  LIG2        0.0092
      6    O       29.3740    0.9540    7.7980 O.3     2  LIG2       -0.3752
      7    C       25.4110    4.5820    3.8590 C.3     2  LIG2       -0.0287
      8    C       26.7300    4.3810    4.6860 C.3     2  LIG2       -0.0254
      9    C       27.6760    5.5920    4.4300 C.3     2  LIG2       -0.0404
     10    C       24.4570    3.3750    4.0030 C.3     2  LIG2       -0.0491
     11    C       25.1500    2.0910    3.5130 C.3     2  LIG2       -0.0494
     12    C       26.4690    1.8290    4.2890 C.3     2  LIG2       -0.0343
     13    C       27.4230    3.0730    4.1820 C.3     2  LIG2       -0.0322
     14    C       27.2170    0.6100    3.7140 C.3     2  LIG2       -0.0298
     15    C       28.5100    0.3000    4.4700 C.3     2  LIG2        0.0019
     16    C       29.4700    1.5020    4.3020 C.3     2  LIG2       -0.0444
     17    C       28.7980    2.7920    4.8720 C.3     2  LIG2       -0.0489
     18    C       26.4660   -0.7230    3.6730 C.3     2  LIG2       -0.0470
     19    C       27.6050   -1.7530    3.4580 C.3     2  LIG2       -0.0260
     20    C       28.9240   -0.9760    3.7320 C.3     2  LIG2        0.0612
     21    C       26.4180    4.2730    6.2050 C.3     2  LIG2       -0.0590
     22    C       28.1990   -0.0170    5.9780 C.3     2  LIG2       -0.0212
     23    C       29.4640   -0.1150    6.8520 C.3     2  LIG2        0.0487
     24    C       30.6150    1.1890    8.4780 C.3     2  LIG2        0.0729
     25    C       31.6920    1.6540    7.7240 C.ar    2  LIG2       -0.0165
     26    C       32.8920    0.9200    7.6460 C.ar    2  LIG2       -0.0209
     27    C       33.9310    1.3650    6.7980 C.ar    2  LIG2        0.1265
     28    C       33.7720    2.5350    6.0420 C.ar    2  LIG2        0.0088
     29    C       32.5760    3.2630    6.1260 C.ar    2  LIG2        0.1265
     30    C       31.5410    2.8270    6.9660 C.ar    2  LIG2       -0.0209
     31    F       32.4080    4.3670    5.3670 F       2  LIG2       -0.2054
     32    F       35.0750    0.6440    6.6770 F       2  LIG2       -0.2054
     33    H       26.8710    7.0340    5.8620 H       2  LIG2        0.0342
     34    H       27.6560    7.7810    4.4780 H       2  LIG2        0.0342
     35    H       30.0810   -2.5420    3.9330 H       2  LIG2        0.2098
     36    H       23.8610    6.0690    3.4870 H       2  LIG2        0.0344
     37    H       24.2300    5.8760    5.1890 H       2  LIG2        0.0344
     38    H       25.6980    4.6300    2.8060 H       2  LIG2        0.0310
     39    H       28.5940    5.5170    5.0100 H       2  LIG2        0.0275
     40    H       27.9940    5.6060    3.3840 H       2  LIG2        0.0275
     41    H       23.5530    3.5430    3.4160 H       2  LIG2        0.0268
     42    H       24.1010    3.2700    5.0290 H       2  LIG2        0.0268
     43    H       25.3710    2.1960    2.4490 H       2  LIG2        0.0268
     44    H       24.4810    1.2310    3.5750 H       2  LIG2        0.0268
     45    H       26.1480    1.6670    5.3110 H       2  LIG2        0.0306
     46    H       27.6200    3.1950    3.1150 H       2  LIG2        0.0309
     47    H       27.4640    0.8610    2.6760 H       2  LIG2        0.0310
     48    H       29.6920    1.6410    3.2480 H       2  LIG2        0.0272
     49    H       30.4380    1.3240    4.7630 H       2  LIG2        0.0272
     50    H       28.6580    2.7240    5.9470 H       2  LIG2        0.0268
     51    H       29.4890    3.6200    4.7380 H       2  LIG2        0.0268
     52    H       25.7460   -0.7600    2.8550 H       2  LIG2        0.0269
     53    H       25.9190   -0.9090    4.5980 H       2  LIG2        0.0269
     54    H       27.5960   -2.1540    2.4450 H       2  LIG2        0.0290
     55    H       27.4720   -2.5920    4.1390 H       2  LIG2        0.0290
     56    H       29.3790   -0.7090    2.7750 H       2  LIG2        0.0599
     57    H       27.0980    4.8830    6.7970 H       2  LIG2        0.0235
     58    H       25.4200    4.6160    6.4650 H       2  LIG2        0.0235
     59    H       26.5010    3.2720    6.6180 H       2  LIG2        0.0235
     60    H       27.6040   -0.9190    6.0910 H       2  LIG2        0.0294
     61    H       27.6170    0.7580    6.4570 H       2  LIG2        0.0294
     62    H       29.5310   -1.0670    7.3780 H       2  LIG2        0.0560
     63    H       30.3780    0.0140    6.2780 H       2  LIG2        0.0560
     64    H       30.9320    0.2640    8.9670 H       2  LIG2        0.0610
     65    H       30.4460    1.9090    9.2780 H       2  LIG2        0.0610
     66    H       33.0210    0.0040    8.2050 H       2  LIG2        0.0650
     67    H       34.5720    2.8790    5.4220 H       2  LIG2        0.0675
     68    H       30.6240    3.3980    7.0070 H       2  LIG2        0.0650
@<TRIPOS>BOND
     1    54    19    1
     2    43    11    1
     3    47    14    1
     4    56    20    1
     5    38     7    1
     6    52    18    1
     7    46    13    1
     8    48    16    1
     9    40     9    1
    10    41    10    1
    11    19    18    1
    12    19    20    1
    13    19    55    1
    14    36     5    1
    15     4     3    2
    16    11    44    1
    17    11    10    1
    18    11    12    1
    19    18    14    1
    20    18    53    1
    21    14    12    1
    22    14    15    1
    23    20    15    1
    24    20     2    1
    25     7    10    1
    26     7     5    1
    27     7     8    1
    28    35     2    1
    29    10    42    1
    30     3     5    1
    31     3     1    1
    32    13    12    1
    33    13     8    1
    34    13    17    1
    35     5    37    1
    36    12    45    1
    37    16    15    1
    38    16    49    1
    39    16    17    1
    40     9     8    1
    41     9     1    1
    42     9    39    1
    43    15    22    1
    44    34     1    1
    45     8    21    1
    46    51    17    1
    47     1    33    1
    48    17    50    1
    49    31    29    1
    50    67    28    1
    51    22    60    1
    52    22    61    1
    53    22    23    1
    54    28    29   ar
    55    28    27   ar
    56    29    30   ar
    57    21    58    1
    58    21    59    1
    59    21    57    1
    60    63    23    1
    61    32    27    1
    62    27    26   ar
    63    23    62    1
    64    23     6    1
    65    30    68    1
    66    30    25   ar
    67    26    25   ar
    68    26    66    1
    69    25    24    1
    70     6    24    1
    71    24    64    1
    72    24    65    1
