# Top-energy pose of compounds ranked according to the score (given in kcal/mol).
@<TRIPOS>MOLECULE
5281519_run_10.pdb
 39 39 0 0 0
SMALL
GASTEIGER

@<TRIPOS>ATOM
      1    C      110.7880  106.9260  124.1230 C.3     2  LIG2       -0.0275
      2    C      109.8970  105.6910  124.3830 C.2     2  LIG2       -0.0668
      3    C      110.8620  108.0010  125.2510 C.3     2  LIG2       -0.0283
      4    C      110.6760  104.3930  124.6880 C.3     2  LIG2       -0.0130
      5    C      111.6850  107.5910  126.4660 C.2     2  LIG2       -0.0762
      6    C      112.1070  104.8770  128.3120 C.3     2  LIG2       -0.0286
      7    C      111.7410  106.3400  128.7110 C.3     2  LIG2       -0.0308
      8    C      111.2150  104.3100  127.2050 C.2     2  LIG2       -0.0759
      9    C      108.5360  105.7560  124.3190 C.2     2  LIG2       -0.0762
     10    C      111.5610  104.5070  125.9130 C.2     2  LIG2       -0.0810
     11    C      111.0800  107.1270  127.5810 C.2     2  LIG2       -0.0847
     12    C      113.1960  107.6260  126.2700 C.3     2  LIG2       -0.0438
     13    C      109.8700  103.7710  127.6730 C.3     2  LIG2       -0.0438
     14    C      107.7550  107.0360  124.0230 C.3     2  LIG2       -0.0438
     15    C      107.5980  104.5650  124.5100 C.3     2  LIG2       -0.0438
     16    H      111.7910  106.5980  123.8490 H       2  LIG2        0.0313
     17    H      110.4250  107.4070  123.2150 H       2  LIG2        0.0313
     18    H      111.2930  108.9210  124.8510 H       2  LIG2        0.0313
     19    H      109.8560  108.2730  125.5690 H       2  LIG2        0.0313
     20    H      110.0280  103.5350  124.8320 H       2  LIG2        0.0352
     21    H      111.2910  104.1340  123.8250 H       2  LIG2        0.0352
     22    H      113.1390  104.8700  127.9570 H       2  LIG2        0.0313
     23    H      112.1010  104.2180  129.1820 H       2  LIG2        0.0313
     24    H      111.0310  106.3220  129.5390 H       2  LIG2        0.0310
     25    H      112.6150  106.8710  129.0900 H       2  LIG2        0.0310
     26    H      112.5270  104.9440  125.7060 H       2  LIG2        0.0575
     27    H      109.9990  107.1160  127.6090 H       2  LIG2        0.0572
     28    H      113.4900  107.0730  125.3770 H       2  LIG2        0.0274
     29    H      113.7420  107.2020  127.1110 H       2  LIG2        0.0274
     30    H      113.5290  108.6580  126.1540 H       2  LIG2        0.0274
     31    H      110.0120  102.8230  128.1920 H       2  LIG2        0.0274
     32    H      109.1740  103.5970  126.8570 H       2  LIG2        0.0274
     33    H      109.3970  104.4710  128.3620 H       2  LIG2        0.0274
     34    H      107.1400  106.9060  123.1330 H       2  LIG2        0.0274
     35    H      108.3760  107.9110  123.8480 H       2  LIG2        0.0274
     36    H      107.1000  107.2710  124.8610 H       2  LIG2        0.0274
     37    H      106.7300  104.6470  123.8540 H       2  LIG2        0.0274
     38    H      107.2330  104.5440  125.5360 H       2  LIG2        0.0274
     39    H      108.0470  103.6000  124.2860 H       2  LIG2        0.0274
@<TRIPOS>BOND
     1    34    14    1
     2    17     1    1
     3    21     4    1
     4    35    14    1
     5    16     1    1
     6    37    15    1
     7    14     9    1
     8    14    36    1
     9     1     2    1
    10     1     3    1
    11    39    15    1
    12     9     2    2
    13     9    15    1
    14     2     4    1
    15    15    38    1
    16     4    20    1
    17     4    10    1
    18    18     3    1
    19     3    19    1
    20     3     5    1
    21    28    12    1
    22    26    10    1
    23    10     8    2
    24    30    12    1
    25    12     5    1
    26    12    29    1
    27     5    11    2
    28    32    13    1
    29     8    13    1
    30     8     6    1
    31    11    27    1
    32    11     7    1
    33    13    31    1
    34    13    33    1
    35    22     6    1
    36     6     7    1
    37     6    23    1
    38     7    25    1
    39     7    24    1
