@<TRIPOS>MOLECULE
5281519_run_10.pdb
 39 39 0 0 0
SMALL
GASTEIGER

@<TRIPOS>ATOM
      1    C      110.7880  106.9260  124.1230 C.3     2  LIG2       -0.0275
      2    C      109.8970  105.6910  124.3830 C.2     2  LIG2       -0.0668
      3    C      110.8620  108.0010  125.2510 C.3     2  LIG2       -0.0283
      4    C      110.6760  104.3930  124.6880 C.3     2  LIG2       -0.0130
      5    C      111.6850  107.5910  126.4660 C.2     2  LIG2       -0.0762
      6    C      112.1070  104.8770  128.3120 C.3     2  LIG2       -0.0286
      7    C      111.7410  106.3400  128.7110 C.3     2  LIG2       -0.0308
      8    C      111.2150  104.3100  127.2050 C.2     2  LIG2       -0.0759
      9    C      108.5360  105.7560  124.3190 C.2     2  LIG2       -0.0762
     10    C      111.5610  104.5070  125.9130 C.2     2  LIG2       -0.0810
     11    C      111.0800  107.1270  127.5810 C.2     2  LIG2       -0.0847
     12    C      113.1960  107.6260  126.2700 C.3     2  LIG2       -0.0438
     13    C      109.8700  103.7710  127.6730 C.3     2  LIG2       -0.0438
     14    C      107.7550  107.0360  124.0230 C.3     2  LIG2       -0.0438
     15    C      107.5980  104.5650  124.5100 C.3     2  LIG2       -0.0438
     16    H      111.7910  106.5980  123.8490 H       2  LIG2        0.0313
     17    H      110.4250  107.4070  123.2150 H       2  LIG2        0.0313
     18    H      111.2930  108.9210  124.8510 H       2  LIG2        0.0313
     19    H      109.8560  108.2730  125.5690 H       2  LIG2        0.0313
     20    H      110.0280  103.5350  124.8320 H       2  LIG2        0.0352
     21    H      111.2910  104.1340  123.8250 H       2  LIG2        0.0352
     22    H      113.1390  104.8700  127.9570 H       2  LIG2        0.0313
     23    H      112.1010  104.2180  129.1820 H       2  LIG2        0.0313
     24    H      111.0310  106.3220  129.5390 H       2  LIG2        0.0310
     25    H      112.6150  106.8710  129.0900 H       2  LIG2        0.0310
     26    H      112.5270  104.9440  125.7060 H       2  LIG2        0.0575
     27    H      109.9990  107.1160  127.6090 H       2  LIG2        0.0572
     28    H      113.4900  107.0730  125.3770 H       2  LIG2        0.0274
     29    H      113.7420  107.2020  127.1110 H       2  LIG2        0.0274
     30    H      113.5290  108.6580  126.1540 H       2  LIG2        0.0274
     31    H      110.0120  102.8230  128.1920 H       2  LIG2        0.0274
     32    H      109.1740  103.5970  126.8570 H       2  LIG2        0.0274
     33    H      109.3970  104.4710  128.3620 H       2  LIG2        0.0274
     34    H      107.1400  106.9060  123.1330 H       2  LIG2        0.0274
     35    H      108.3760  107.9110  123.8480 H       2  LIG2        0.0274
     36    H      107.1000  107.2710  124.8610 H       2  LIG2        0.0274
     37    H      106.7300  104.6470  123.8540 H       2  LIG2        0.0274
     38    H      107.2330  104.5440  125.5360 H       2  LIG2        0.0274
     39    H      108.0470  103.6000  124.2860 H       2  LIG2        0.0274
@<TRIPOS>BOND
     1    34    14    1
     2    17     1    1
     3    21     4    1
     4    35    14    1
     5    16     1    1
     6    37    15    1
     7    14     9    1
     8    14    36    1
     9     1     2    1
    10     1     3    1
    11    39    15    1
    12     9     2    2
    13     9    15    1
    14     2     4    1
    15    15    38    1
    16     4    20    1
    17     4    10    1
    18    18     3    1
    19     3    19    1
    20     3     5    1
    21    28    12    1
    22    26    10    1
    23    10     8    2
    24    30    12    1
    25    12     5    1
    26    12    29    1
    27     5    11    2
    28    32    13    1
    29     8    13    1
    30     8     6    1
    31    11    27    1
    32    11     7    1
    33    13    31    1
    34    13    33    1
    35    22     6    1
    36     6     7    1
    37     6    23    1
    38     7    25    1
    39     7    24    1
@<TRIPOS>MOLECULE
5281519_run_1.pdb
 39 39 0 0 0
SMALL
GASTEIGER

@<TRIPOS>ATOM
      1    C      111.9280  107.4160  126.3880 C.3     2  LIG2       -0.0275
      2    C      111.1670  107.9900  125.1730 C.2     2  LIG2       -0.0668
      3    C      111.0830  107.0180  127.6370 C.3     2  LIG2       -0.0283
      4    C      111.0400  107.0170  123.9810 C.3     2  LIG2       -0.0130
      5    C      110.2690  105.7400  127.4710 C.2     2  LIG2       -0.0762
      6    C      108.4170  104.3260  125.1210 C.3     2  LIG2       -0.0286
      7    C      108.1000  104.6600  126.6110 C.3     2  LIG2       -0.0308
      8    C      108.9770  105.5160  124.3390 C.2     2  LIG2       -0.0759
      9    C      110.6750  109.2620  125.1630 C.2     2  LIG2       -0.0762
     10    C      110.3110  105.7360  124.3360 C.2     2  LIG2       -0.0810
     11    C      108.9530  105.7980  127.1700 C.2     2  LIG2       -0.0847
     12    C      111.0700  104.4450  127.5430 C.3     2  LIG2       -0.0438
     13    C      107.9330  106.4960  123.8220 C.3     2  LIG2       -0.0438
     14    C      110.7910  110.2310  126.3390 C.3     2  LIG2       -0.0438
     15    C      109.9620  109.9110  123.9780 C.3     2  LIG2       -0.0438
     16    H      112.5440  106.5750  126.0660 H       2  LIG2        0.0313
     17    H      112.6640  108.1600  126.6950 H       2  LIG2        0.0313
     18    H      111.7410  106.8850  128.4970 H       2  LIG2        0.0313
     19    H      110.4190  107.8380  127.9100 H       2  LIG2        0.0313
     20    H      110.5310  107.4560  123.1290 H       2  LIG2        0.0352
     21    H      112.0360  106.7710  123.6110 H       2  LIG2        0.0352
     22    H      109.1590  103.5260  125.1030 H       2  LIG2        0.0313
     23    H      107.5430  103.9130  124.6150 H       2  LIG2        0.0313
     24    H      107.0600  104.9760  126.6960 H       2  LIG2        0.0310
     25    H      108.1860  103.7710  127.2370 H       2  LIG2        0.0310
     26    H      110.9510  104.9860  124.7770 H       2  LIG2        0.0575
     27    H      108.4840  106.7700  127.1130 H       2  LIG2        0.0572
     28    H      111.9230  104.4720  126.8650 H       2  LIG2        0.0274
     29    H      110.4780  103.5680  127.2890 H       2  LIG2        0.0274
     30    H      111.4460  104.3010  128.5560 H       2  LIG2        0.0274
     31    H      107.3970  106.0570  122.9800 H       2  LIG2        0.0274
     32    H      108.3620  107.4370  123.4840 H       2  LIG2        0.0274
     33    H      107.2090  106.7310  124.6040 H       2  LIG2        0.0274
     34    H      111.3250  111.1310  126.0360 H       2  LIG2        0.0274
     35    H      111.3190  109.8300  127.2020 H       2  LIG2        0.0274
     36    H      109.7970  110.5210  126.6790 H       2  LIG2        0.0274
     37    H      110.2100  110.9710  123.9110 H       2  LIG2        0.0274
     38    H      108.8830  109.8330  124.1090 H       2  LIG2        0.0274
     39    H      110.2210  109.4850  123.0110 H       2  LIG2        0.0274
@<TRIPOS>BOND
     1    31    13    1
     2    39    15    1
     3    20     4    1
     4    32    13    1
     5    21     4    1
     6    13     8    1
     7    13    33    1
     8    37    15    1
     9    15    38    1
    10    15     9    1
    11     4    10    1
    12     4     2    1
    13    10     8    2
    14    10    26    1
    15     8     6    1
    16    23     6    1
    17    22     6    1
    18     6     7    1
    19     9     2    2
    20     9    14    1
    21     2     1    1
    22    34    14    1
    23    16     1    1
    24    14    36    1
    25    14    35    1
    26     1    17    1
    27     1     3    1
    28     7    24    1
    29     7    11    1
    30     7    25    1
    31    28    12    1
    32    27    11    1
    33    11     5    2
    34    29    12    1
    35     5    12    1
    36     5     3    1
    37    12    30    1
    38     3    19    1
    39     3    18    1
@<TRIPOS>MOLECULE
5281519_run_3.pdb
 39 39 0 0 0
SMALL
GASTEIGER

@<TRIPOS>ATOM
      1    C      110.1710  104.3560  126.9030 C.3     2  LIG2       -0.0275
      2    C      111.2590  105.2590  126.2830 C.2     2  LIG2       -0.0668
      3    C      108.7790  105.0020  127.1800 C.3     2  LIG2       -0.0283
      4    C      111.5480  104.9820  124.7910 C.3     2  LIG2       -0.0130
      5    C      107.9390  105.2580  125.9340 C.2     2  LIG2       -0.0762
      6    C      108.4280  106.3820  122.8610 C.3     2  LIG2       -0.0286
      7    C      107.4220  106.8280  123.9650 C.3     2  LIG2       -0.0308
      8    C      109.8760  106.3120  123.3520 C.2     2  LIG2       -0.0759
      9    C      111.9180  106.2040  127.0150 C.2     2  LIG2       -0.0762
     10    C      110.3290  105.1660  123.9080 C.2     2  LIG2       -0.0810
     11    C      107.8880  106.4890  125.3800 C.2     2  LIG2       -0.0847
     12    C      107.2930  104.0210  125.3210 C.3     2  LIG2       -0.0438
     13    C      110.6110  107.6450  123.3840 C.3     2  LIG2       -0.0438
     14    C      111.6370  106.4890  128.4890 C.3     2  LIG2       -0.0438
     15    C      113.0400  107.0920  126.4810 C.3     2  LIG2       -0.0438
     16    H      110.0550  103.4580  126.2940 H       2  LIG2        0.0313
     17    H      110.5630  103.9690  127.8440 H       2  LIG2        0.0313
     18    H      108.2020  104.3580  127.8450 H       2  LIG2        0.0313
     19    H      108.9080  105.9360  127.7280 H       2  LIG2        0.0313
     20    H      112.3390  105.6070  124.3910 H       2  LIG2        0.0352
     21    H      111.9180  103.9620  124.6820 H       2  LIG2        0.0352
     22    H      108.1360  105.3890  122.5160 H       2  LIG2        0.0313
     23    H      108.3550  107.0210  121.9790 H       2  LIG2        0.0313
     24    H      107.2990  107.9110  123.9260 H       2  LIG2        0.0310
     25    H      106.4300  106.4160  123.7780 H       2  LIG2        0.0310
     26    H      109.6940  104.2940  123.8650 H       2  LIG2        0.0575
     27    H      108.4070  107.2960  125.8790 H       2  LIG2        0.0572
     28    H      108.0290  103.2330  125.1570 H       2  LIG2        0.0274
     29    H      106.8140  104.2250  124.3640 H       2  LIG2        0.0274
     30    H      106.5250  103.6350  125.9920 H       2  LIG2        0.0274
     31    H      110.8580  107.9560  122.3690 H       2  LIG2        0.0274
     32    H      111.5380  107.6060  123.9500 H       2  LIG2        0.0274
     33    H      109.9860  108.4150  123.8360 H       2  LIG2        0.0274
     34    H      112.5390  106.3380  129.0820 H       2  LIG2        0.0274
     35    H      110.8650  105.8620  128.9300 H       2  LIG2        0.0274
     36    H      111.3160  107.5230  128.6110 H       2  LIG2        0.0274
     37    H      113.7910  107.2710  127.2520 H       2  LIG2        0.0274
     38    H      112.6360  108.0590  126.1850 H       2  LIG2        0.0274
     39    H      113.5800  106.6730  125.6350 H       2  LIG2        0.0274
@<TRIPOS>BOND
     1    23     6    1
     2    31    13    1
     3    22     6    1
     4     6     8    1
     5     6     7    1
     6     8    13    1
     7     8    10    2
     8    13    33    1
     9    13    32    1
    10    25     7    1
    11    26    10    1
    12    10     4    1
    13    24     7    1
    14     7    11    1
    15    29    12    1
    16    20     4    1
    17    21     4    1
    18     4     2    1
    19    28    12    1
    20    12     5    1
    21    12    30    1
    22    11    27    1
    23    11     5    2
    24    39    15    1
    25     5     3    1
    26    38    15    1
    27     2     1    1
    28     2     9    2
    29    16     1    1
    30    15     9    1
    31    15    37    1
    32     1     3    1
    33     1    17    1
    34     9    14    1
    35     3    19    1
    36     3    18    1
    37    14    36    1
    38    14    35    1
    39    14    34    1
@<TRIPOS>MOLECULE
5281519_run_21.pdb
 39 39 0 0 0
SMALL
GASTEIGER

@<TRIPOS>ATOM
      1    C      112.0260  106.8940  124.9560 C.3     2  LIG2       -0.0275
      2    C      110.7870  106.5220  124.1130 C.2     2  LIG2       -0.0668
      3    C      111.7720  107.5100  126.3660 C.3     2  LIG2       -0.0283
      4    C      110.5070  105.0060  124.0210 C.3     2  LIG2       -0.0130
      5    C      111.2850  106.5170  127.4140 C.2     2  LIG2       -0.0762
      6    C      109.1560  103.9880  127.5650 C.3     2  LIG2       -0.0286
      7    C      109.2860  105.2710  128.4420 C.3     2  LIG2       -0.0308
      8    C      109.1140  104.2830  126.0640 C.2     2  LIG2       -0.0759
      9    C      110.0260  107.4670  123.4890 C.2     2  LIG2       -0.0762
     10    C      110.2740  104.3630  125.3730 C.2     2  LIG2       -0.0810
     11    C      109.9730  106.4300  127.7220 C.2     2  LIG2       -0.0847
     12    C      112.3530  105.5800  127.9660 C.3     2  LIG2       -0.0438
     13    C      107.7520  104.7020  125.5270 C.3     2  LIG2       -0.0438
     14    C      110.2910  108.9700  123.5790 C.3     2  LIG2       -0.0438
     15    C      108.8230  107.1680  122.5980 C.3     2  LIG2       -0.0438
     16    H      112.6830  106.0270  125.0370 H       2  LIG2        0.0313
     17    H      112.6180  107.6010  124.3740 H       2  LIG2        0.0313
     18    H      112.6920  107.9640  126.7380 H       2  LIG2        0.0313
     19    H      111.0600  108.3320  126.2860 H       2  LIG2        0.0313
     20    H      109.6520  104.7710  123.3960 H       2  LIG2        0.0352
     21    H      111.3500  104.5160  123.5320 H       2  LIG2        0.0352
     22    H      110.0200  103.3520  127.7640 H       2  LIG2        0.0313
     23    H      108.2910  103.3930  127.8610 H       2  LIG2        0.0313
     24    H      108.2900  105.6200  128.7210 H       2  LIG2        0.0310
     25    H      109.7900  105.0500  129.3840 H       2  LIG2        0.0310
     26    H      111.1860  104.0830  125.8790 H       2  LIG2        0.0575
     27    H      109.2910  107.1240  127.2510 H       2  LIG2        0.0572
     28    H      112.8960  105.0840  127.1610 H       2  LIG2        0.0274
     29    H      111.9430  104.8030  128.6100 H       2  LIG2        0.0274
     30    H      113.0710  106.1470  128.5600 H       2  LIG2        0.0274
     31    H      107.0890  103.8380  125.4840 H       2  LIG2        0.0274
     32    H      107.8010  105.1280  124.5270 H       2  LIG2        0.0274
     33    H      107.2990  105.4510  126.1770 H       2  LIG2        0.0274
     34    H      110.4570  109.3840  122.5840 H       2  LIG2        0.0274
     35    H      111.1580  109.2400  124.1780 H       2  LIG2        0.0274
     36    H      109.4300  109.4710  124.0190 H       2  LIG2        0.0274
     37    H      108.7680  107.8770  121.7710 H       2  LIG2        0.0274
     38    H      107.9030  107.2650  123.1750 H       2  LIG2        0.0274
     39    H      108.8370  106.1810  122.1410 H       2  LIG2        0.0274
@<TRIPOS>BOND
     1    37    15    1
     2    39    15    1
     3    34    14    1
     4    15    38    1
     5    15     9    1
     6    20     4    1
     7     9    14    1
     8     9     2    2
     9    21     4    1
    10    14    36    1
    11    14    35    1
    12     4     2    1
    13     4    10    1
    14     2     1    1
    15    17     1    1
    16    32    13    1
    17     1    16    1
    18     1     3    1
    19    10    26    1
    20    10     8    2
    21    31    13    1
    22    13     8    1
    23    13    33    1
    24     8     6    1
    25    19     3    1
    26     3    18    1
    27     3     5    1
    28    28    12    1
    29    27    11    1
    30     5    11    2
    31     5    12    1
    32     6    22    1
    33     6    23    1
    34     6     7    1
    35    11     7    1
    36    12    30    1
    37    12    29    1
    38     7    24    1
    39     7    25    1
@<TRIPOS>MOLECULE
5281519_run_24.pdb
 39 39 0 0 0
SMALL
GASTEIGER

@<TRIPOS>ATOM
      1    C      108.0870  106.4000  125.2390 C.3     2  LIG2       -0.0275
      2    C      109.2190  107.2350  124.6000 C.2     2  LIG2       -0.0668
      3    C      108.2660  104.8510  125.2580 C.3     2  LIG2       -0.0283
      4    C      110.1070  107.9910  125.6120 C.3     2  LIG2       -0.0130
      5    C      109.2900  104.3420  126.2660 C.2     2  LIG2       -0.0762
      6    C      112.2970  105.2210  127.3310 C.3     2  LIG2       -0.0286
      7    C      111.7640  103.8650  126.7740 C.3     2  LIG2       -0.0308
      8    C      111.9740  106.4150  126.4300 C.2     2  LIG2       -0.0759
      9    C      109.3890  107.3050  123.2480 C.2     2  LIG2       -0.0762
     10    C      110.8020  107.0690  126.5940 C.2     2  LIG2       -0.0810
     11    C      110.5410  104.0210  125.8710 C.2     2  LIG2       -0.0847
     12    C      108.8310  104.3520  127.7190 C.3     2  LIG2       -0.0438
     13    C      112.9200  106.6090  125.2530 C.3     2  LIG2       -0.0438
     14    C      108.5200  106.5580  122.2390 C.3     2  LIG2       -0.0438
     15    C      110.4500  108.1520  122.5470 C.3     2  LIG2       -0.0438
     16    H      107.8910  106.7690  126.2470 H       2  LIG2        0.0313
     17    H      107.1660  106.6330  124.7050 H       2  LIG2        0.0313
     18    H      107.3110  104.3750  125.4830 H       2  LIG2        0.0313
     19    H      108.5320  104.4980  124.2610 H       2  LIG2        0.0313
     20    H      110.8720  108.5940  125.1350 H       2  LIG2        0.0352
     21    H      109.4940  108.7050  126.1630 H       2  LIG2        0.0352
     22    H      111.8350  105.3930  128.3050 H       2  LIG2        0.0313
     23    H      113.3680  105.1720  127.5300 H       2  LIG2        0.0313
     24    H      112.5410  103.3920  126.1720 H       2  LIG2        0.0310
     25    H      111.5580  103.1650  127.5840 H       2  LIG2        0.0310
     26    H      110.1900  106.8100  127.4460 H       2  LIG2        0.0575
     27    H      110.7750  104.0760  124.8170 H       2  LIG2        0.0572
     28    H      108.4380  105.3290  128.0010 H       2  LIG2        0.0274
     29    H      109.6310  104.1090  128.4160 H       2  LIG2        0.0274
     30    H      108.0410  103.6140  127.8610 H       2  LIG2        0.0274
     31    H      113.8760  106.9970  125.6060 H       2  LIG2        0.0274
     32    H      112.5380  107.3040  124.5090 H       2  LIG2        0.0274
     33    H      113.1010  105.6600  124.7480 H       2  LIG2        0.0274
     34    H      108.0390  107.2620  121.5590 H       2  LIG2        0.0274
     35    H      107.7260  105.9610  122.6820 H       2  LIG2        0.0274
     36    H      109.1360  105.8800  121.6490 H       2  LIG2        0.0274
     37    H      110.0640  108.5580  121.6110 H       2  LIG2        0.0274
     38    H      111.3140  107.5350  122.3050 H       2  LIG2        0.0274
     39    H      110.7920  109.0090  123.1230 H       2  LIG2        0.0274
@<TRIPOS>BOND
     1    34    14    1
     2    37    15    1
     3    36    14    1
     4    14    35    1
     5    14     9    1
     6    38    15    1
     7    15    39    1
     8    15     9    1
     9     9     2    2
    10    19     3    1
    11    32    13    1
    12     2     1    1
    13     2     4    1
    14    17     1    1
    15    33    13    1
    16    27    11    1
    17    20     4    1
    18     1     3    1
    19     1    16    1
    20    13    31    1
    21    13     8    1
    22     3    18    1
    23     3     5    1
    24     4    21    1
    25     4    10    1
    26    11     5    2
    27    11     7    1
    28    24     7    1
    29     5    12    1
    30     8    10    2
    31     8     6    1
    32    10    26    1
    33     7     6    1
    34     7    25    1
    35     6    23    1
    36     6    22    1
    37    12    30    1
    38    12    28    1
    39    12    29    1
@<TRIPOS>MOLECULE
5281519_run_1.pdb
 39 39 0 0 0
SMALL
GASTEIGER

@<TRIPOS>ATOM
      1    C      109.5180  104.4400  127.4420 C.3     2  LIG2       -0.0275
      2    C      111.0610  104.5010  127.4570 C.2     2  LIG2       -0.0668
      3    C      108.7510  105.7960  127.3580 C.3     2  LIG2       -0.0283
      4    C      111.7310  104.0640  126.1360 C.3     2  LIG2       -0.0130
      5    C      108.7960  106.4660  125.9890 C.2     2  LIG2       -0.0762
      6    C      111.0360  106.9900  123.6110 C.3     2  LIG2       -0.0286
      7    C      110.0980  107.9780  124.3690 C.3     2  LIG2       -0.0308
      8    C      111.8450  106.0860  124.5440 C.2     2  LIG2       -0.0759
      9    C      111.7590  104.8880  128.5640 C.2     2  LIG2       -0.0762
     10    C      111.3130  104.9120  124.9510 C.2     2  LIG2       -0.0810
     11    C      109.6670  107.4690  125.7430 C.2     2  LIG2       -0.0847
     12    C      107.8970  105.8390  124.9290 C.3     2  LIG2       -0.0438
     13    C      113.1010  106.7200  125.1270 C.3     2  LIG2       -0.0438
     14    C      111.1050  105.3270  129.8740 C.3     2  LIG2       -0.0438
     15    C      113.2820  104.9180  128.6660 C.3     2  LIG2       -0.0438
     16    H      109.1890  103.7710  126.6460 H       2  LIG2        0.0313
     17    H      109.2010  103.9240  128.3480 H       2  LIG2        0.0313
     18    H      107.7040  105.6410  127.6190 H       2  LIG2        0.0313
     19    H      109.1340  106.4840  128.1110 H       2  LIG2        0.0313
     20    H      112.8150  104.0840  126.1860 H       2  LIG2        0.0352
     21    H      111.4820  103.0210  125.9360 H       2  LIG2        0.0352
     22    H      110.4180  106.3560  122.9730 H       2  LIG2        0.0313
     23    H      111.6990  107.5210  122.9260 H       2  LIG2        0.0313
     24    H      110.6230  108.9200  124.5330 H       2  LIG2        0.0310
     25    H      109.2280  108.2320  123.7620 H       2  LIG2        0.0310
     26    H      110.3890  104.5880  124.4960 H       2  LIG2        0.0575
     27    H      110.2820  107.8220  126.5580 H       2  LIG2        0.0572
     28    H      108.0630  104.7640  124.8590 H       2  LIG2        0.0274
     29    H      108.0560  106.2600  123.9380 H       2  LIG2        0.0274
     30    H      106.8510  106.0050  125.1880 H       2  LIG2        0.0274
     31    H      113.8700  106.7940  124.3580 H       2  LIG2        0.0274
     32    H      113.5190  106.1530  125.9560 H       2  LIG2        0.0274
     33    H      112.8870  107.7240  125.4950 H       2  LIG2        0.0274
     34    H      111.4320  104.6860  130.6920 H       2  LIG2        0.0274
     35    H      110.0180  105.2950  129.8670 H       2  LIG2        0.0274
     36    H      111.3930  106.3520  130.1060 H       2  LIG2        0.0274
     37    H      113.6080  104.6380  129.6690 H       2  LIG2        0.0274
     38    H      113.6450  105.9280  128.4730 H       2  LIG2        0.0274
     39    H      113.7910  104.2370  127.9880 H       2  LIG2        0.0274
@<TRIPOS>BOND
     1    23     6    1
     2    22     6    1
     3     6     7    1
     4     6     8    1
     5    25     7    1
     6    29    12    1
     7    31    13    1
     8     7    24    1
     9     7    11    1
    10    26    10    1
    11     8    10    2
    12     8    13    1
    13    28    12    1
    14    12    30    1
    15    12     5    1
    16    10     4    1
    17    13    33    1
    18    13    32    1
    19    11     5    2
    20    11    27    1
    21    21     4    1
    22     5     3    1
    23     4    20    1
    24     4     2    1
    25    16     1    1
    26     3     1    1
    27     3    18    1
    28     3    19    1
    29     1     2    1
    30     1    17    1
    31     2     9    2
    32    39    15    1
    33    38    15    1
    34     9    15    1
    35     9    14    1
    36    15    37    1
    37    35    14    1
    38    14    36    1
    39    14    34    1
@<TRIPOS>MOLECULE
5281519_run_8.pdb
 39 39 0 0 0
SMALL
GASTEIGER

@<TRIPOS>ATOM
      1    C      111.2480  106.2580  129.1850 C.3     2  LIG2       -0.0275
      2    C      111.3600  104.7900  128.7150 C.2     2  LIG2       -0.0668
      3    C      112.2070  107.2940  128.5220 C.3     2  LIG2       -0.0283
      4    C      110.2030  104.3200  127.8070 C.3     2  LIG2       -0.0130
      5    C      111.8460  107.6650  127.0880 C.2     2  LIG2       -0.0762
      6    C      110.8060  106.1050  124.3620 C.3     2  LIG2       -0.0286
      7    C      112.0160  107.0600  124.5950 C.3     2  LIG2       -0.0308
      8    C      110.7390  104.9540  125.3680 C.2     2  LIG2       -0.0759
      9    C      112.3900  103.9840  129.1010 C.2     2  LIG2       -0.0762
     10    C      110.0790  105.1350  126.5350 C.2     2  LIG2       -0.0810
     11    C      112.4900  107.0920  126.0470 C.2     2  LIG2       -0.0847
     12    C      110.6550  108.6040  126.9400 C.3     2  LIG2       -0.0438
     13    C      111.6440  103.7700  125.0550 C.3     2  LIG2       -0.0438
     14    C      113.5420  104.4410  129.9950 C.3     2  LIG2       -0.0438
     15    C      112.5340  102.5120  128.7200 C.3     2  LIG2       -0.0438
     16    H      110.2140  106.5900  129.0940 H       2  LIG2        0.0313
     17    H      111.4210  106.2710  130.2610 H       2  LIG2        0.0313
     18    H      112.2180  108.2120  129.1110 H       2  LIG2        0.0313
     19    H      113.2310  106.9220  128.5540 H       2  LIG2        0.0313
     20    H      110.2880  103.2770  127.5190 H       2  LIG2        0.0352
     21    H      109.2650  104.3780  128.3620 H       2  LIG2        0.0352
     22    H      109.8890  106.6900  124.4500 H       2  LIG2        0.0313
     23    H      110.7990  105.7190  123.3410 H       2  LIG2        0.0313
     24    H      112.8630  106.7240  123.9950 H       2  LIG2        0.0310
     25    H      111.7910  108.0670  124.2410 H       2  LIG2        0.0310
     26    H      109.5060  106.0420  126.6590 H       2  LIG2        0.0575
     27    H      113.3050  106.4150  126.2610 H       2  LIG2        0.0572
     28    H      109.7900  108.2320  127.4910 H       2  LIG2        0.0274
     29    H      110.3480  108.7380  125.9040 H       2  LIG2        0.0274
     30    H      110.9100  109.5880  127.3330 H       2  LIG2        0.0274
     31    H      111.2350  103.2030  124.2180 H       2  LIG2        0.0274
     32    H      111.7540  103.0850  125.8930 H       2  LIG2        0.0274
     33    H      112.6420  104.1130  124.7820 H       2  LIG2        0.0274
     34    H      113.5870  103.8300  130.8960 H       2  LIG2        0.0274
     35    H      113.4750  105.4760  130.3220 H       2  LIG2        0.0274
     36    H      114.4870  104.3350  129.4630 H       2  LIG2        0.0274
     37    H      112.9720  101.9410  129.5390 H       2  LIG2        0.0274
     38    H      113.1980  102.4160  127.8610 H       2  LIG2        0.0274
     39    H      111.5950  102.0160  128.4830 H       2  LIG2        0.0274
@<TRIPOS>BOND
     1    23     6    1
     2    24     7    1
     3    31    13    1
     4    25     7    1
     5     6    22    1
     6     6     7    1
     7     6     8    1
     8     7    11    1
     9    33    13    1
    10    13     8    1
    11    13    32    1
    12     8    10    2
    13    29    12    1
    14    11    27    1
    15    11     5    2
    16    10    26    1
    17    10     4    1
    18    12     5    1
    19    12    30    1
    20    12    28    1
    21     5     3    1
    22    20     4    1
    23     4    21    1
    24     4     2    1
    25    38    15    1
    26    39    15    1
    27     3    19    1
    28     3    18    1
    29     3     1    1
    30     2     9    2
    31     2     1    1
    32    15     9    1
    33    15    37    1
    34    16     1    1
    35     9    14    1
    36     1    17    1
    37    36    14    1
    38    14    35    1
    39    14    34    1
@<TRIPOS>MOLECULE
5281519_run_24.pdb
 39 39 0 0 0
SMALL
GASTEIGER

@<TRIPOS>ATOM
      1    C      111.1420  107.6900  127.2170 C.3     2  LIG2       -0.0275
      2    C      110.6600  106.2430  127.4640 C.2     2  LIG2       -0.0668
      3    C      111.8550  107.9820  125.8610 C.3     2  LIG2       -0.0283
      4    C      109.1320  106.0500  127.3510 C.3     2  LIG2       -0.0130
      5    C      110.9280  108.0220  124.6510 C.2     2  LIG2       -0.0762
      6    C      108.3420  106.3000  123.5130 C.3     2  LIG2       -0.0286
      7    C      109.6920  106.6870  122.8360 C.3     2  LIG2       -0.0308
      8    C      108.5180  105.6410  124.8830 C.2     2  LIG2       -0.0759
      9    C      111.5260  105.2370  127.7790 C.2     2  LIG2       -0.0762
     10    C      108.5870  106.4200  125.9860 C.2     2  LIG2       -0.0810
     11    C      110.8170  106.9510  123.8360 C.2     2  LIG2       -0.0847
     12    C      110.0770  109.2800  124.5270 C.3     2  LIG2       -0.0438
     13    C      108.8430  104.1550  124.8470 C.3     2  LIG2       -0.0438
     14    C      113.0390  105.4170  127.8880 C.3     2  LIG2       -0.0438
     15    C      111.1140  103.8000  128.0900 C.3     2  LIG2       -0.0438
     16    H      110.3090  108.3790  127.3600 H       2  LIG2        0.0313
     17    H      111.8230  107.9510  128.0260 H       2  LIG2        0.0313
     18    H      112.3710  108.9410  125.9180 H       2  LIG2        0.0313
     19    H      112.6410  107.2460  125.6910 H       2  LIG2        0.0313
     20    H      108.8180  105.0330  127.5630 H       2  LIG2        0.0352
     21    H      108.6370  106.6560  128.1110 H       2  LIG2        0.0352
     22    H      107.7550  107.2110  123.6450 H       2  LIG2        0.0313
     23    H      107.7400  105.6670  122.8600 H       2  LIG2        0.0313
     24    H      110.0240  105.8660  122.1990 H       2  LIG2        0.0310
     25    H      109.5630  107.5390  122.1670 H       2  LIG2        0.0310
     26    H      108.3810  107.4750  125.8780 H       2  LIG2        0.0575
     27    H      111.4460  106.0940  124.0280 H       2  LIG2        0.0572
     28    H      109.5410  109.4860  125.4540 H       2  LIG2        0.0274
     29    H      109.3380  109.2120  123.7300 H       2  LIG2        0.0274
     30    H      110.7150  110.1360  124.3060 H       2  LIG2        0.0274
     31    H      107.9540  103.5880  124.5690 H       2  LIG2        0.0274
     32    H      109.1920  103.7710  125.8030 H       2  LIG2        0.0274
     33    H      109.6220  103.9520  124.1110 H       2  LIG2        0.0274
     34    H      113.3810  105.1430  128.8860 H       2  LIG2        0.0274
     35    H      113.3870  106.4310  127.7070 H       2  LIG2        0.0274
     36    H      113.5410  104.7730  127.1670 H       2  LIG2        0.0274
     37    H      111.7540  103.3720  128.8630 H       2  LIG2        0.0274
     38    H      111.2200  103.1840  127.1980 H       2  LIG2        0.0274
     39    H      110.0960  103.6940  128.4580 H       2  LIG2        0.0274
@<TRIPOS>BOND
     1    25     7    1
     2    24     7    1
     3     7     6    1
     4     7    11    1
     5    23     6    1
     6     6    22    1
     7     6     8    1
     8    29    12    1
     9    11    27    1
    10    11     5    2
    11    33    13    1
    12    30    12    1
    13    12     5    1
    14    12    28    1
    15    31    13    1
    16     5     3    1
    17    13     8    1
    18    13    32    1
    19     8    10    2
    20    19     3    1
    21     3    18    1
    22     3     1    1
    23    26    10    1
    24    10     4    1
    25    36    14    1
    26    38    15    1
    27     1    16    1
    28     1     2    1
    29     1    17    1
    30     4     2    1
    31     4    20    1
    32     4    21    1
    33     2     9    2
    34    35    14    1
    35     9    14    1
    36     9    15    1
    37    14    34    1
    38    15    39    1
    39    15    37    1
@<TRIPOS>MOLECULE
5281519_run_8.pdb
 39 39 0 0 0
SMALL
GASTEIGER

@<TRIPOS>ATOM
      1    C      110.8470  107.9310  125.1010 C.3     2  LIG2       -0.0275
      2    C      111.1920  107.2030  126.4180 C.2     2  LIG2       -0.0668
      3    C      110.6620  107.0520  123.8260 C.3     2  LIG2       -0.0283
      4    C      110.0250  107.1180  127.4270 C.3     2  LIG2       -0.0130
      5    C      109.3650  106.2510  123.7910 C.2     2  LIG2       -0.0762
      6    C      107.5410  104.4820  125.9100 C.3     2  LIG2       -0.0286
      7    C      108.1260  104.1170  124.5110 C.3     2  LIG2       -0.0308
      8    C      108.5840  105.0560  126.8710 C.2     2  LIG2       -0.0759
      9    C      112.4370  106.7020  126.6640 C.2     2  LIG2       -0.0762
     10    C      108.8170  106.3880  126.8740 C.2     2  LIG2       -0.0810
     11    C      109.3530  104.9450  124.1340 C.2     2  LIG2       -0.0847
     12    C      108.1120  107.0590  123.4710 C.3     2  LIG2       -0.0438
     13    C      109.4470  104.0210  127.5800 C.3     2  LIG2       -0.0438
     14    C      113.5960  106.7760  125.6710 C.3     2  LIG2       -0.0438
     15    C      112.8610  106.0210  127.9630 C.3     2  LIG2       -0.0438
     16    H      109.9710  108.5620  125.2540 H       2  LIG2        0.0313
     17    H      111.6420  108.6520  124.9070 H       2  LIG2        0.0313
     18    H      110.6880  107.6840  122.9380 H       2  LIG2        0.0313
     19    H      111.5090  106.3740  123.7190 H       2  LIG2        0.0313
     20    H      110.3030  106.6320  128.3560 H       2  LIG2        0.0352
     21    H      109.7310  108.1270  127.7190 H       2  LIG2        0.0352
     22    H      106.7590  105.2300  125.7670 H       2  LIG2        0.0313
     23    H      107.0360  103.6260  126.3610 H       2  LIG2        0.0313
     24    H      108.4390  103.0730  124.5110 H       2  LIG2        0.0310
     25    H      107.3600  104.1910  123.7380 H       2  LIG2        0.0310
     26    H      108.1620  107.0200  126.2920 H       2  LIG2        0.0575
     27    H      110.2950  104.4710  124.3730 H       2  LIG2        0.0572
     28    H      108.0310  107.9320  124.1190 H       2  LIG2        0.0274
     29    H      107.1960  106.4810  123.5850 H       2  LIG2        0.0274
     30    H      108.1500  107.4060  122.4380 H       2  LIG2        0.0274
     31    H      108.8620  103.5140  128.3480 H       2  LIG2        0.0274
     32    H      110.3190  104.4530  128.0640 H       2  LIG2        0.0274
     33    H      109.8050  103.2730  126.8720 H       2  LIG2        0.0274
     34    H      114.4370  107.3130  126.1110 H       2  LIG2        0.0274
     35    H      113.3590  107.2800  124.7370 H       2  LIG2        0.0274
     36    H      113.9290  105.7710  125.4160 H       2  LIG2        0.0274
     37    H      113.8970  106.2630  128.2070 H       2  LIG2        0.0274
     38    H      112.7940  104.9390  127.8510 H       2  LIG2        0.0274
     39    H      112.2770  106.3110  128.8340 H       2  LIG2        0.0274
@<TRIPOS>BOND
     1    30    12    1
     2    18     3    1
     3    12    29    1
     4    12     5    1
     5    12    28    1
     6    19     3    1
     7    25     7    1
     8     5     3    1
     9     5    11    2
    10     3     1    1
    11    11    27    1
    12    11     7    1
    13     7    24    1
    14     7     6    1
    15    35    14    1
    16    17     1    1
    17     1    16    1
    18     1     2    1
    19    36    14    1
    20    14    34    1
    21    14     9    1
    22    22     6    1
    23     6    23    1
    24     6     8    1
    25    26    10    1
    26     2     9    2
    27     2     4    1
    28     9    15    1
    29     8    10    2
    30     8    13    1
    31    33    13    1
    32    10     4    1
    33     4    21    1
    34     4    20    1
    35    13    32    1
    36    13    31    1
    37    38    15    1
    38    15    37    1
    39    15    39    1
@<TRIPOS>MOLECULE
5281519_run_4.pdb
 39 39 0 0 0
SMALL
GASTEIGER

@<TRIPOS>ATOM
      1    C      110.7220  111.9750  123.2990 C.3     2  LIG2       -0.0275
      2    C      110.9480  110.8750  124.3590 C.2     2  LIG2       -0.0668
      3    C      109.3350  112.6890  123.2960 C.3     2  LIG2       -0.0283
      4    C      111.8760  111.2890  125.5220 C.3     2  LIG2       -0.0130
      5    C      109.1250  113.6710  124.4430 C.2     2  LIG2       -0.0762
      6    C      109.7620  113.7910  127.6880 C.3     2  LIG2       -0.0286
      7    C      108.4350  114.0060  126.8970 C.3     2  LIG2       -0.0308
      8    C      110.4800  112.4900  127.3240 C.2     2  LIG2       -0.0759
      9    C      110.3850  109.6370  124.2490 C.2     2  LIG2       -0.0762
     10    C      111.3580  112.4850  126.2960 C.2     2  LIG2       -0.0810
     11    C      108.4210  113.3080  125.5380 C.2     2  LIG2       -0.0847
     12    C      109.8600  114.9980  124.3050 C.3     2  LIG2       -0.0438
     13    C      109.9460  111.2430  128.0170 C.3     2  LIG2       -0.0438
     14    C      109.4620  109.2190  123.1060 C.3     2  LIG2       -0.0438
     15    C      110.6110  108.4880  125.2290 C.3     2  LIG2       -0.0438
     16    H      111.5240  112.7100  123.3620 H       2  LIG2        0.0313
     17    H      110.8760  111.5220  122.3190 H       2  LIG2        0.0313
     18    H      109.2070  113.2360  122.3610 H       2  LIG2        0.0313
     19    H      108.5370  111.9460  123.3040 H       2  LIG2        0.0313
     20    H      112.0450  110.4880  126.2340 H       2  LIG2        0.0352
     21    H      112.8660  111.5210  125.1260 H       2  LIG2        0.0352
     22    H      110.4300  114.6240  127.4640 H       2  LIG2        0.0313
     23    H      109.5920  113.8450  128.7640 H       2  LIG2        0.0313
     24    H      107.6020  113.5960  127.4690 H       2  LIG2        0.0310
     25    H      108.2160  115.0690  126.7860 H       2  LIG2        0.0310
     26    H      111.6250  113.4330  125.8520 H       2  LIG2        0.0575
     27    H      107.9620  112.3300  125.5490 H       2  LIG2        0.0572
     28    H      110.9190  114.8420  124.0950 H       2  LIG2        0.0274
     29    H      109.7910  115.6150  125.1990 H       2  LIG2        0.0274
     30    H      109.4320  115.5730  123.4820 H       2  LIG2        0.0274
     31    H      110.2500  111.2430  129.0640 H       2  LIG2        0.0274
     32    H      110.3080  110.3200  127.5700 H       2  LIG2        0.0274
     33    H      108.8570  111.2190  127.9760 H       2  LIG2        0.0274
     34    H      109.8790  108.3610  122.5780 H       2  LIG2        0.0274
     35    H      109.2910  109.9910  122.3590 H       2  LIG2        0.0274
     36    H      108.4870  108.9360  123.5020 H       2  LIG2        0.0274
     37    H      110.6350  107.5310  124.7050 H       2  LIG2        0.0274
     38    H      109.7910  108.4490  125.9460 H       2  LIG2        0.0274
     39    H      111.5460  108.5460  125.7820 H       2  LIG2        0.0274
@<TRIPOS>BOND
     1    17     1    1
     2    35    14    1
     3    18     3    1
     4    34    14    1
     5    14    36    1
     6    14     9    1
     7     3     1    1
     8     3    19    1
     9     3     5    1
    10     1    16    1
    11     1     2    1
    12    30    12    1
    13    28    12    1
    14     9     2    2
    15     9    15    1
    16    12     5    1
    17    12    29    1
    18     2     4    1
    19     5    11    2
    20    37    15    1
    21    21     4    1
    22    15    39    1
    23    15    38    1
    24     4    20    1
    25     4    10    1
    26    11    27    1
    27    11     7    1
    28    26    10    1
    29    10     8    2
    30    25     7    1
    31     7    24    1
    32     7     6    1
    33     8     6    1
    34     8    13    1
    35    22     6    1
    36    32    13    1
    37     6    23    1
    38    33    13    1
    39    13    31    1
