# Top-energy pose of compounds ranked according to the score (given in kcal/mol).
@<TRIPOS>MOLECULE
5281519_run_14.pdb
 39 39 0 0 0
SMALL
GASTEIGER

@<TRIPOS>ATOM
      1    C      110.5430  107.2290  124.5410 C.3     2  LIG2       -0.0275
      2    C      109.7430  106.3310  125.5100 C.2     2  LIG2       -0.0668
      3    C      110.8160  106.6710  123.1110 C.3     2  LIG2       -0.0283
      4    C      108.2870  106.7860  125.7500 C.3     2  LIG2       -0.0130
      5    C      109.6010  106.6610  122.1910 C.2     2  LIG2       -0.0762
      6    C      106.3810  105.9340  122.4240 C.3     2  LIG2       -0.0286
      7    C      107.4760  105.4270  121.4360 C.3     2  LIG2       -0.0308
      8    C      106.7880  105.8130  123.8940 C.2     2  LIG2       -0.0759
      9    C      110.3020  105.2420  126.1140 C.2     2  LIG2       -0.0762
     10    C      107.4630  106.8280  124.4780 C.2     2  LIG2       -0.0810
     11    C      108.8920  105.5270  122.0000 C.2     2  LIG2       -0.0847
     12    C      109.1980  108.0210  121.6330 C.3     2  LIG2       -0.0438
     13    C      106.5980  104.4310  124.5040 C.3     2  LIG2       -0.0438
     14    C      111.7390  104.7810  125.8800 C.3     2  LIG2       -0.0438
     15    C      109.5880  104.3450  127.1220 C.3     2  LIG2       -0.0438
     16    H      110.0670  108.2090  124.4790 H       2  LIG2        0.0313
     17    H      111.5010  107.4480  125.0130 H       2  LIG2        0.0313
     18    H      111.5950  107.2640  122.6290 H       2  LIG2        0.0313
     19    H      111.2270  105.6630  123.1800 H       2  LIG2        0.0313
     20    H      107.7590  106.1570  126.4590 H       2  LIG2        0.0352
     21    H      108.2920  107.7760  126.2070 H       2  LIG2        0.0352
     22    H      106.1900  106.9860  122.2080 H       2  LIG2        0.0313
     23    H      105.4290  105.4310  122.2490 H       2  LIG2        0.0313
     24    H      107.3010  104.3740  121.2120 H       2  LIG2        0.0310
     25    H      107.4060  105.9430  120.4780 H       2  LIG2        0.0310
     26    H      107.5750  107.7490  123.9250 H       2  LIG2        0.0575
     27    H      109.2470  104.6180  122.4660 H       2  LIG2        0.0572
     28    H      109.0960  108.7590  122.4290 H       2  LIG2        0.0274
     29    H      108.2540  107.9930  121.0910 H       2  LIG2        0.0274
     30    H      109.9600  108.3750  120.9370 H       2  LIG2        0.0274
     31    H      105.5370  104.2430  124.6710 H       2  LIG2        0.0274
     32    H      107.1070  104.3130  125.4580 H       2  LIG2        0.0274
     33    H      106.9810  103.6610  123.8330 H       2  LIG2        0.0274
     34    H      112.2910  104.7720  126.8200 H       2  LIG2        0.0274
     35    H      112.3060  105.4040  125.1920 H       2  LIG2        0.0274
     36    H      111.7420  103.7710  125.4720 H       2  LIG2        0.0274
     37    H      110.2810  103.9980  127.8900 H       2  LIG2        0.0274
     38    H      109.1910  103.4650  126.6170 H       2  LIG2        0.0274
     39    H      108.7730  104.8280  127.6560 H       2  LIG2        0.0274
@<TRIPOS>BOND
     1    25     7    1
     2    30    12    1
     3    29    12    1
     4    24     7    1
     5     7    11    1
     6     7     6    1
     7    12     5    1
     8    12    28    1
     9    11     5    2
    10    11    27    1
    11     5     3    1
    12    22     6    1
    13    23     6    1
    14     6     8    1
    15    18     3    1
    16     3    19    1
    17     3     1    1
    18    33    13    1
    19     8    10    2
    20     8    13    1
    21    26    10    1
    22    10     4    1
    23    16     1    1
    24    13    31    1
    25    13    32    1
    26     1    17    1
    27     1     2    1
    28    35    14    1
    29    36    14    1
    30     2     4    1
    31     2     9    2
    32     4    21    1
    33     4    20    1
    34    14     9    1
    35    14    34    1
    36     9    15    1
    37    38    15    1
    38    15    39    1
    39    15    37    1
