@<TRIPOS>MOLECULE
5281519_run_14.pdb
 39 39 0 0 0
SMALL
GASTEIGER

@<TRIPOS>ATOM
      1    C      110.5430  107.2290  124.5410 C.3     2  LIG2       -0.0275
      2    C      109.7430  106.3310  125.5100 C.2     2  LIG2       -0.0668
      3    C      110.8160  106.6710  123.1110 C.3     2  LIG2       -0.0283
      4    C      108.2870  106.7860  125.7500 C.3     2  LIG2       -0.0130
      5    C      109.6010  106.6610  122.1910 C.2     2  LIG2       -0.0762
      6    C      106.3810  105.9340  122.4240 C.3     2  LIG2       -0.0286
      7    C      107.4760  105.4270  121.4360 C.3     2  LIG2       -0.0308
      8    C      106.7880  105.8130  123.8940 C.2     2  LIG2       -0.0759
      9    C      110.3020  105.2420  126.1140 C.2     2  LIG2       -0.0762
     10    C      107.4630  106.8280  124.4780 C.2     2  LIG2       -0.0810
     11    C      108.8920  105.5270  122.0000 C.2     2  LIG2       -0.0847
     12    C      109.1980  108.0210  121.6330 C.3     2  LIG2       -0.0438
     13    C      106.5980  104.4310  124.5040 C.3     2  LIG2       -0.0438
     14    C      111.7390  104.7810  125.8800 C.3     2  LIG2       -0.0438
     15    C      109.5880  104.3450  127.1220 C.3     2  LIG2       -0.0438
     16    H      110.0670  108.2090  124.4790 H       2  LIG2        0.0313
     17    H      111.5010  107.4480  125.0130 H       2  LIG2        0.0313
     18    H      111.5950  107.2640  122.6290 H       2  LIG2        0.0313
     19    H      111.2270  105.6630  123.1800 H       2  LIG2        0.0313
     20    H      107.7590  106.1570  126.4590 H       2  LIG2        0.0352
     21    H      108.2920  107.7760  126.2070 H       2  LIG2        0.0352
     22    H      106.1900  106.9860  122.2080 H       2  LIG2        0.0313
     23    H      105.4290  105.4310  122.2490 H       2  LIG2        0.0313
     24    H      107.3010  104.3740  121.2120 H       2  LIG2        0.0310
     25    H      107.4060  105.9430  120.4780 H       2  LIG2        0.0310
     26    H      107.5750  107.7490  123.9250 H       2  LIG2        0.0575
     27    H      109.2470  104.6180  122.4660 H       2  LIG2        0.0572
     28    H      109.0960  108.7590  122.4290 H       2  LIG2        0.0274
     29    H      108.2540  107.9930  121.0910 H       2  LIG2        0.0274
     30    H      109.9600  108.3750  120.9370 H       2  LIG2        0.0274
     31    H      105.5370  104.2430  124.6710 H       2  LIG2        0.0274
     32    H      107.1070  104.3130  125.4580 H       2  LIG2        0.0274
     33    H      106.9810  103.6610  123.8330 H       2  LIG2        0.0274
     34    H      112.2910  104.7720  126.8200 H       2  LIG2        0.0274
     35    H      112.3060  105.4040  125.1920 H       2  LIG2        0.0274
     36    H      111.7420  103.7710  125.4720 H       2  LIG2        0.0274
     37    H      110.2810  103.9980  127.8900 H       2  LIG2        0.0274
     38    H      109.1910  103.4650  126.6170 H       2  LIG2        0.0274
     39    H      108.7730  104.8280  127.6560 H       2  LIG2        0.0274
@<TRIPOS>BOND
     1    25     7    1
     2    30    12    1
     3    29    12    1
     4    24     7    1
     5     7    11    1
     6     7     6    1
     7    12     5    1
     8    12    28    1
     9    11     5    2
    10    11    27    1
    11     5     3    1
    12    22     6    1
    13    23     6    1
    14     6     8    1
    15    18     3    1
    16     3    19    1
    17     3     1    1
    18    33    13    1
    19     8    10    2
    20     8    13    1
    21    26    10    1
    22    10     4    1
    23    16     1    1
    24    13    31    1
    25    13    32    1
    26     1    17    1
    27     1     2    1
    28    35    14    1
    29    36    14    1
    30     2     4    1
    31     2     9    2
    32     4    21    1
    33     4    20    1
    34    14     9    1
    35    14    34    1
    36     9    15    1
    37    38    15    1
    38    15    39    1
    39    15    37    1
@<TRIPOS>MOLECULE
5281519_run_6.pdb
 39 39 0 0 0
SMALL
GASTEIGER

@<TRIPOS>ATOM
      1    C      112.2480  107.6890  125.3430 C.3     2  LIG2       -0.0275
      2    C      111.2360  108.4560  124.4630 C.2     2  LIG2       -0.0668
      3    C      111.7060  107.0370  126.6510 C.3     2  LIG2       -0.0283
      4    C      110.8290  107.7200  123.1680 C.3     2  LIG2       -0.0130
      5    C      110.8610  105.7870  126.4340 C.2     2  LIG2       -0.0762
      6    C      108.5060  104.7790  124.3400 C.3     2  LIG2       -0.0286
      7    C      108.5410  104.8180  125.8980 C.3     2  LIG2       -0.0308
      8    C      108.8850  106.1120  123.6910 C.2     2  LIG2       -0.0759
      9    C      110.7690  109.6910  124.8070 C.2     2  LIG2       -0.0762
     10    C      110.1860  106.3720  123.4290 C.2     2  LIG2       -0.0810
     11    C      109.5120  105.8570  126.4550 C.2     2  LIG2       -0.0847
     12    C      111.6420  104.5280  126.0760 C.3     2  LIG2       -0.0438
     13    C      107.7620  107.1370  123.6210 C.3     2  LIG2       -0.0438
     14    C      111.1620  110.4250  126.0880 C.3     2  LIG2       -0.0438
     15    C      109.8120  110.5260  123.9590 C.3     2  LIG2       -0.0438
     16    H      112.7650  106.9440  124.7360 H       2  LIG2        0.0313
     17    H      113.0430  108.3860  125.6110 H       2  LIG2        0.0313
     18    H      112.5410  106.7660  127.2990 H       2  LIG2        0.0313
     19    H      111.1310  107.7690  127.2190 H       2  LIG2        0.0313
     20    H      110.1440  108.2940  122.5530 H       2  LIG2        0.0352
     21    H      111.7120  107.5800  122.5430 H       2  LIG2        0.0352
     22    H      109.2150  104.0210  124.0020 H       2  LIG2        0.0313
     23    H      107.5350  104.4400  123.9750 H       2  LIG2        0.0313
     24    H      107.5510  105.0780  126.2750 H       2  LIG2        0.0310
     25    H      108.7580  103.8300  126.3080 H       2  LIG2        0.0310
     26    H      110.9010  105.5740  123.5630 H       2  LIG2        0.0575
     27    H      109.0530  106.8070  126.6920 H       2  LIG2        0.0572
     28    H      112.3180  104.7090  125.2400 H       2  LIG2        0.0274
     29    H      110.9980  103.6950  125.8010 H       2  LIG2        0.0274
     30    H      112.2380  104.2090  126.9320 H       2  LIG2        0.0274
     31    H      107.0440  106.8470  122.8540 H       2  LIG2        0.0274
     32    H      108.1130  108.1380  123.3790 H       2  LIG2        0.0274
     33    H      107.2390  107.1980  124.5760 H       2  LIG2        0.0274
     34    H      111.6230  111.3830  125.8490 H       2  LIG2        0.0274
     35    H      111.8680  109.8870  126.7170 H       2  LIG2        0.0274
     36    H      110.2750  110.6140  126.6920 H       2  LIG2        0.0274
     37    H      110.0500  111.5880  124.0400 H       2  LIG2        0.0274
     38    H      108.7910  110.3910  124.3130 H       2  LIG2        0.0274
     39    H      109.8380  110.2980  122.8960 H       2  LIG2        0.0274
@<TRIPOS>BOND
     1    21     4    1
     2    20     4    1
     3    31    13    1
     4    39    15    1
     5     4    10    1
     6     4     2    1
     7    32    13    1
     8    10    26    1
     9    10     8    2
    10    13     8    1
    11    13    33    1
    12     8     6    1
    13    15    37    1
    14    15    38    1
    15    15     9    1
    16    23     6    1
    17    22     6    1
    18     6     7    1
    19     2     9    2
    20     2     1    1
    21    16     1    1
    22     9    14    1
    23    28    12    1
    24     1    17    1
    25     1     3    1
    26    29    12    1
    27    34    14    1
    28     7    24    1
    29     7    25    1
    30     7    11    1
    31    12     5    1
    32    12    30    1
    33    14    36    1
    34    14    35    1
    35     5    11    2
    36     5     3    1
    37    11    27    1
    38     3    19    1
    39     3    18    1
@<TRIPOS>MOLECULE
5281519_run_5.pdb
 39 39 0 0 0
SMALL
GASTEIGER

@<TRIPOS>ATOM
      1    C      106.7680  105.2240  124.9790 C.3     2  LIG2       -0.0275
      2    C      106.7920  105.7470  123.5260 C.2     2  LIG2       -0.0668
      3    C      107.9540  104.3180  125.4310 C.3     2  LIG2       -0.0283
      4    C      107.1490  107.2440  123.3910 C.3     2  LIG2       -0.0130
      5    C      109.2670  105.0580  125.6580 C.2     2  LIG2       -0.0762
      6    C      110.9900  107.4630  124.1760 C.3     2  LIG2       -0.0286
      7    C      111.4070  106.0260  124.6130 C.3     2  LIG2       -0.0308
      8    C      109.7120  107.4940  123.3350 C.2     2  LIG2       -0.0759
      9    C      106.4960  104.9440  122.4630 C.2     2  LIG2       -0.0762
     10    C      108.5140  107.5810  123.9560 C.2     2  LIG2       -0.0810
     11    C      110.2290  105.0580  124.7100 C.2     2  LIG2       -0.0847
     12    C      109.3390  105.8730  126.9440 C.3     2  LIG2       -0.0438
     13    C      109.9040  107.1780  121.8580 C.3     2  LIG2       -0.0438
     14    C      106.1480  103.4620  122.5860 C.3     2  LIG2       -0.0438
     15    C      106.4480  105.4080  121.0090 C.3     2  LIG2       -0.0438
     16    H      106.6530  106.0640  125.6650 H       2  LIG2        0.0313
     17    H      105.8410  104.6660  125.1110 H       2  LIG2        0.0313
     18    H      107.6930  103.8090  126.3600 H       2  LIG2        0.0313
     19    H      108.1080  103.5210  124.7030 H       2  LIG2        0.0313
     20    H      107.1250  107.5930  122.3640 H       2  LIG2        0.0352
     21    H      106.3920  107.8400  123.9030 H       2  LIG2        0.0352
     22    H      110.8200  108.0560  125.0760 H       2  LIG2        0.0313
     23    H      111.8030  107.9680  123.6530 H       2  LIG2        0.0313
     24    H      112.0960  105.6100  123.8760 H       2  LIG2        0.0310
     25    H      111.9640  106.0500  125.5500 H       2  LIG2        0.0310
     26    H      108.5060  107.7610  125.0210 H       2  LIG2        0.0575
     27    H      110.0670  104.4690  123.8180 H       2  LIG2        0.0572
     28    H      108.4800  106.5370  127.0380 H       2  LIG2        0.0274
     29    H      110.2360  106.4880  127.0050 H       2  LIG2        0.0274
     30    H      109.3470  105.2030  127.8050 H       2  LIG2        0.0274
     31    H      110.3820  108.0210  121.3580 H       2  LIG2        0.0274
     32    H      108.9700  106.9750  121.3400 H       2  LIG2        0.0274
     33    H      110.5410  106.3010  121.7350 H       2  LIG2        0.0274
     34    H      105.1580  103.2710  122.1720 H       2  LIG2        0.0274
     35    H      106.1370  103.0840  123.6060 H       2  LIG2        0.0274
     36    H      106.8710  102.8650  122.0320 H       2  LIG2        0.0274
     37    H      105.6570  104.8900  120.4640 H       2  LIG2        0.0274
     38    H      107.3910  105.1770  120.5160 H       2  LIG2        0.0274
     39    H      106.2480  106.4700  120.8830 H       2  LIG2        0.0274
@<TRIPOS>BOND
     1    37    15    1
     2    38    15    1
     3    39    15    1
     4    15     9    1
     5    32    13    1
     6    31    13    1
     7    33    13    1
     8    13     8    1
     9    36    14    1
    10    34    14    1
    11    20     4    1
    12     9    14    1
    13     9     2    2
    14    14    35    1
    15     8    10    2
    16     8     6    1
    17     4     2    1
    18     4    21    1
    19     4    10    1
    20     2     1    1
    21    23     6    1
    22    27    11    1
    23    24     7    1
    24    10    26    1
    25     6     7    1
    26     6    22    1
    27     7    11    1
    28     7    25    1
    29    19     3    1
    30    11     5    2
    31     1    17    1
    32     1     3    1
    33     1    16    1
    34     3     5    1
    35     3    18    1
    36     5    12    1
    37    12    29    1
    38    12    28    1
    39    12    30    1
@<TRIPOS>MOLECULE
5281519_run_1.pdb
 39 39 0 0 0
SMALL
GASTEIGER

@<TRIPOS>ATOM
      1    C      107.5800  105.9920  124.4550 C.3     2  LIG2       -0.0275
      2    C      108.4410  107.0300  123.7020 C.2     2  LIG2       -0.0668
      3    C      108.1800  104.5630  124.6340 C.3     2  LIG2       -0.0283
      4    C      109.0800  108.1070  124.6060 C.3     2  LIG2       -0.0130
      5    C      109.2990  104.4690  125.6640 C.2     2  LIG2       -0.0762
      6    C      111.9400  106.2510  126.5540 C.3     2  LIG2       -0.0286
      7    C      111.8060  104.7490  126.1580 C.3     2  LIG2       -0.0308
      8    C      111.3050  107.2050  125.5400 C.2     2  LIG2       -0.0759
      9    C      108.5920  106.9970  122.3470 C.2     2  LIG2       -0.0762
     10    C      109.9980  107.5250  125.6630 C.2     2  LIG2       -0.0810
     11    C      110.5930  104.4630  125.2750 C.2     2  LIG2       -0.0847
     12    C      108.8480  104.5110  127.1190 C.3     2  LIG2       -0.0438
     13    C      112.1670  107.5220  124.3250 C.3     2  LIG2       -0.0438
     14    C      107.9680  105.9330  121.4450 C.3     2  LIG2       -0.0438
     15    C      109.3820  108.0210  121.5340 C.3     2  LIG2       -0.0438
     16    H      107.2840  106.4000  125.4220 H       2  LIG2        0.0313
     17    H      106.6340  105.9020  123.9220 H       2  LIG2        0.0313
     18    H      107.3920  103.8700  124.9320 H       2  LIG2        0.0313
     19    H      108.5380  104.1910  123.6740 H       2  LIG2        0.0313
     20    H      109.6510  108.8420  124.0480 H       2  LIG2        0.0352
     21    H      108.2910  108.6810  125.0930 H       2  LIG2        0.0352
     22    H      111.4440  106.3950  127.5150 H       2  LIG2        0.0313
     23    H      112.9830  106.5210  126.7310 H       2  LIG2        0.0313
     24    H      112.6870  104.4450  125.5900 H       2  LIG2        0.0310
     25    H      111.7970  104.1120  127.0430 H       2  LIG2        0.0310
     26    H      109.4770  107.2020  126.5520 H       2  LIG2        0.0575
     27    H      110.8070  104.4650  124.2150 H       2  LIG2        0.0572
     28    H      108.1980  105.3660  127.3050 H       2  LIG2        0.0274
     29    H      109.6800  104.5740  127.8180 H       2  LIG2        0.0274
     30    H      108.2910  103.6040  127.3590 H       2  LIG2        0.0274
     31    H      112.9770  108.1940  124.6110 H       2  LIG2        0.0274
     32    H      111.6120  108.0000  123.5220 H       2  LIG2        0.0274
     33    H      112.6060  106.6100  123.9200 H       2  LIG2        0.0274
     34    H      107.3150  106.3990  120.7070 H       2  LIG2        0.0274
     35    H      107.3680  105.1940  121.9690 H       2  LIG2        0.0274
     36    H      108.7510  105.3920  120.9150 H       2  LIG2        0.0274
     37    H      108.9040  108.2010  120.5700 H       2  LIG2        0.0274
     38    H      110.3840  107.6430  121.3370 H       2  LIG2        0.0274
     39    H      109.4710  108.9970  122.0060 H       2  LIG2        0.0274
@<TRIPOS>BOND
     1    37    15    1
     2    34    14    1
     3    36    14    1
     4    38    15    1
     5    14    35    1
     6    14     9    1
     7    15    39    1
     8    15     9    1
     9     9     2    2
    10    32    13    1
    11    19     3    1
    12     2     1    1
    13     2     4    1
    14    33    13    1
    15    17     1    1
    16    20     4    1
    17    27    11    1
    18    13    31    1
    19    13     8    1
    20     1     3    1
    21     1    16    1
    22     4    21    1
    23     4    10    1
    24     3    18    1
    25     3     5    1
    26    11     5    2
    27    11     7    1
    28     8    10    2
    29     8     6    1
    30    24     7    1
    31    10    26    1
    32     5    12    1
    33     7     6    1
    34     7    25    1
    35     6    23    1
    36     6    22    1
    37    12    28    1
    38    12    30    1
    39    12    29    1
@<TRIPOS>MOLECULE
5281519_run_6.pdb
 39 39 0 0 0
SMALL
GASTEIGER

@<TRIPOS>ATOM
      1    C      109.9730  106.1950  126.5270 C.3     2  LIG2       -0.0275
      2    C      110.7230  107.2150  125.6430 C.2     2  LIG2       -0.0668
      3    C      108.4140  106.2460  126.5110 C.3     2  LIG2       -0.0283
      4    C      111.3540  106.6140  124.3680 C.3     2  LIG2       -0.0130
      5    C      107.7740  105.7020  125.2390 C.2     2  LIG2       -0.0762
      6    C      108.3300  105.8540  121.9810 C.3     2  LIG2       -0.0286
      7    C      107.0510  106.1690  122.8170 C.3     2  LIG2       -0.0308
      8    C      109.5820  106.5650  122.4980 C.2     2  LIG2       -0.0759
      9    C      110.8290  108.5300  125.9880 C.2     2  LIG2       -0.0762
     10    C      110.3340  105.9680  123.4500 C.2     2  LIG2       -0.0810
     11    C      107.3540  106.5410  124.2680 C.2     2  LIG2       -0.0847
     12    C      107.7700  104.1830  125.1130 C.3     2  LIG2       -0.0438
     13    C      109.7330  108.0130  122.0510 C.3     2  LIG2       -0.0438
     14    C      110.2050  109.1350  127.2440 C.3     2  LIG2       -0.0438
     15    C      111.6010  109.5800  125.1910 C.3     2  LIG2       -0.0438
     16    H      110.3180  105.1870  126.2920 H       2  LIG2        0.0313
     17    H      110.3100  106.3400  127.5540 H       2  LIG2        0.0313
     18    H      108.0200  105.6760  127.3540 H       2  LIG2        0.0313
     19    H      108.0770  107.2700  126.6780 H       2  LIG2        0.0313
     20    H      111.9020  107.3450  123.7830 H       2  LIG2        0.0352
     21    H      112.1000  105.8710  124.6530 H       2  LIG2        0.0352
     22    H      108.5060  104.7780  122.0220 H       2  LIG2        0.0313
     23    H      108.1740  106.0760  120.9240 H       2  LIG2        0.0313
     24    H      106.5320  107.0210  122.3760 H       2  LIG2        0.0310
     25    H      106.3430  105.3410  122.7720 H       2  LIG2        0.0310
     26    H      110.1000  104.9490  123.7180 H       2  LIG2        0.0575
     27    H      107.4280  107.6050  124.4440 H       2  LIG2        0.0572
     28    H      108.7680  103.7730  125.2710 H       2  LIG2        0.0274
     29    H      107.4270  103.8410  124.1380 H       2  LIG2        0.0274
     30    H      107.1030  103.7520  125.8610 H       2  LIG2        0.0274
     31    H      110.0170  108.0480  120.9990 H       2  LIG2        0.0274
     32    H      110.4890  108.5550  122.6140 H       2  LIG2        0.0274
     33    H      108.7910  108.5490  122.1700 H       2  LIG2        0.0274
     34    H      110.9760  109.5820  127.8730 H       2  LIG2        0.0274
     35    H      109.6670  108.4250  127.8680 H       2  LIG2        0.0274
     36    H      109.4970  109.9160  126.9670 H       2  LIG2        0.0274
     37    H      112.0770  110.3000  125.8580 H       2  LIG2        0.0274
     38    H      110.9160  110.1310  124.5480 H       2  LIG2        0.0274
     39    H      112.4000  109.1760  124.5730 H       2  LIG2        0.0274
@<TRIPOS>BOND
     1    23     6    1
     2    31    13    1
     3     6    22    1
     4     6     8    1
     5     6     7    1
     6    13    33    1
     7    13     8    1
     8    13    32    1
     9    24     7    1
    10     8    10    2
    11    25     7    1
    12     7    11    1
    13    10    26    1
    14    10     4    1
    15    20     4    1
    16    29    12    1
    17    11    27    1
    18    11     5    2
    19     4    21    1
    20     4     2    1
    21    38    15    1
    22    39    15    1
    23    12     5    1
    24    12    28    1
    25    12    30    1
    26    15    37    1
    27    15     9    1
    28     5     3    1
    29     2     9    2
    30     2     1    1
    31     9    14    1
    32    16     1    1
    33     3     1    1
    34     3    19    1
    35     3    18    1
    36     1    17    1
    37    36    14    1
    38    14    35    1
    39    14    34    1
@<TRIPOS>MOLECULE
5281519_run_10.pdb
 39 39 0 0 0
SMALL
GASTEIGER

@<TRIPOS>ATOM
      1    C      109.2280  104.9500  124.5240 C.3     2  LIG2       -0.0275
      2    C      110.4610  104.7730  125.4380 C.2     2  LIG2       -0.0668
      3    C      108.2610  106.1290  124.8510 C.3     2  LIG2       -0.0283
      4    C      111.7990  105.2040  124.7980 C.3     2  LIG2       -0.0130
      5    C      108.7990  107.5100  124.4910 C.2     2  LIG2       -0.0762
      6    C      111.6770  109.1280  124.7020 C.3     2  LIG2       -0.0286
      7    C      110.2490  109.5120  125.1970 C.3     2  LIG2       -0.0308
      8    C      112.1220  107.7350  125.1540 C.2     2  LIG2       -0.0759
      9    C      110.3600  104.2540  126.6960 C.2     2  LIG2       -0.0762
     10    C      111.8160  106.6640  124.3890 C.2     2  LIG2       -0.0810
     11    C      109.3480  108.3020  125.4380 C.2     2  LIG2       -0.0847
     12    C      108.7800  107.8460  123.0050 C.3     2  LIG2       -0.0438
     13    C      112.6700  107.6620  126.5730 C.3     2  LIG2       -0.0438
     14    C      109.0410  103.8290  127.3390 C.3     2  LIG2       -0.0438
     15    C      111.5410  104.0000  127.6300 C.3     2  LIG2       -0.0438
     16    H      109.5530  105.0060  123.4850 H       2  LIG2        0.0313
     17    H      108.6590  104.0210  124.5580 H       2  LIG2        0.0313
     18    H      107.3190  105.9890  124.3190 H       2  LIG2        0.0313
     19    H      107.9970  106.1080  125.9090 H       2  LIG2        0.0313
     20    H      112.6510  105.0380  125.4480 H       2  LIG2        0.0352
     21    H      111.9930  104.5840  123.9220 H       2  LIG2        0.0352
     22    H      111.6760  109.1490  123.6110 H       2  LIG2        0.0313
     23    H      112.4120  109.8780  124.9990 H       2  LIG2        0.0313
     24    H      110.3260  110.0410  126.1470 H       2  LIG2        0.0310
     25    H      109.7750  110.2140  124.5100 H       2  LIG2        0.0310
     26    H      111.3850  106.8410  123.4150 H       2  LIG2        0.0575
     27    H      109.3370  107.9570  126.4620 H       2  LIG2        0.0572
     28    H      109.2570  107.0610  122.4180 H       2  LIG2        0.0274
     29    H      109.2910  108.7800  122.7770 H       2  LIG2        0.0274
     30    H      107.7500  107.9480  122.6630 H       2  LIG2        0.0274
     31    H      113.6640  108.1080  126.6090 H       2  LIG2        0.0274
     32    H      112.7530  106.6440  126.9450 H       2  LIG2        0.0274
     33    H      112.0240  108.2090  127.2610 H       2  LIG2        0.0274
     34    H      109.0760  102.7740  127.6110 H       2  LIG2        0.0274
     35    H      108.1670  103.9590  126.7050 H       2  LIG2        0.0274
     36    H      108.8670  104.4090  128.2450 H       2  LIG2        0.0274
     37    H      111.3800  103.0970  128.2210 H       2  LIG2        0.0274
     38    H      111.6470  104.8330  128.3250 H       2  LIG2        0.0274
     39    H      112.4920  103.8550  127.1220 H       2  LIG2        0.0274
@<TRIPOS>BOND
     1    28    12    1
     2    30    12    1
     3    29    12    1
     4    12     5    1
     5    26    10    1
     6    16     1    1
     7    22     6    1
     8    21     4    1
     9    18     3    1
    10    10     4    1
    11    10     8    2
    12     5     3    1
    13     5    11    2
    14    25     7    1
    15     1    17    1
    16     1     3    1
    17     1     2    1
    18     6    23    1
    19     6     8    1
    20     6     7    1
    21     4     2    1
    22     4    20    1
    23     3    19    1
    24     8    13    1
    25     7    11    1
    26     7    24    1
    27    11    27    1
    28     2     9    2
    29    13    31    1
    30    13    32    1
    31    13    33    1
    32     9    14    1
    33     9    15    1
    34    35    14    1
    35    39    15    1
    36    14    34    1
    37    14    36    1
    38    15    37    1
    39    15    38    1
@<TRIPOS>MOLECULE
5281519_run_4.pdb
 39 39 0 0 0
SMALL
GASTEIGER

@<TRIPOS>ATOM
      1    C      110.7150  110.9350  128.0560 C.3     2  LIG2       -0.0275
      2    C      110.0830  112.3040  128.3940 C.2     2  LIG2       -0.0668
      3    C      110.1270  110.1590  126.8380 C.3     2  LIG2       -0.0283
      4    C      110.9540  113.5220  128.0130 C.3     2  LIG2       -0.0130
      5    C      110.5040  110.7340  125.4770 C.2     2  LIG2       -0.0762
      6    C      110.7840  113.7270  124.0960 C.3     2  LIG2       -0.0286
      7    C      109.9870  112.4630  123.6480 C.3     2  LIG2       -0.0308
      8    C      110.5170  114.1280  125.5480 C.2     2  LIG2       -0.0759
      9    C      108.8650  112.4090  129.0000 C.2     2  LIG2       -0.0762
     10    C      111.2690  113.5850  126.5320 C.2     2  LIG2       -0.0810
     11    C      109.6420  111.5250  124.8030 C.2     2  LIG2       -0.0847
     12    C      111.9320  110.4510  125.0260 C.3     2  LIG2       -0.0438
     13    C      109.2470  114.9380  125.7710 C.3     2  LIG2       -0.0438
     14    C      107.9940  111.2110  129.3750 C.3     2  LIG2       -0.0438
     15    C      108.2080  113.7240  129.4110 C.3     2  LIG2       -0.0438
     16    H      111.7930  111.0520  127.9440 H       2  LIG2        0.0313
     17    H      110.6230  110.3050  128.9410 H       2  LIG2        0.0313
     18    H      110.4640  109.1220  126.8670 H       2  LIG2        0.0313
     19    H      109.0410  110.1080  126.9220 H       2  LIG2        0.0313
     20    H      110.5020  114.4680  128.2920 H       2  LIG2        0.0352
     21    H      111.8870  113.4840  128.5760 H       2  LIG2        0.0352
     22    H      111.8480  113.5120  123.9910 H       2  LIG2        0.0313
     23    H      110.5970  114.5690  123.4270 H       2  LIG2        0.0313
     24    H      109.0410  112.7730  123.2010 H       2  LIG2        0.0310
     25    H      110.5180  111.9260  122.8610 H       2  LIG2        0.0310
     26    H      112.1220  112.9870  126.2480 H       2  LIG2        0.0575
     27    H      108.6600  111.6870  125.2250 H       2  LIG2        0.0572
     28    H      112.6510  110.7320  125.7960 H       2  LIG2        0.0274
     29    H      112.2010  110.9870  124.1170 H       2  LIG2        0.0274
     30    H      112.0510  109.3860  124.8230 H       2  LIG2        0.0274
     31    H      109.3870  115.9550  125.4030 H       2  LIG2        0.0274
     32    H      108.9620  115.0030  126.8180 H       2  LIG2        0.0274
     33    H      108.4100  114.4910  125.2330 H       2  LIG2        0.0274
     34    H      107.8000  111.2060  130.4480 H       2  LIG2        0.0274
     35    H      108.4290  110.2440  129.1330 H       2  LIG2        0.0274
     36    H      107.0390  111.2710  128.8550 H       2  LIG2        0.0274
     37    H      107.6520  113.6050  130.3420 H       2  LIG2        0.0274
     38    H      107.4990  114.0380  128.6440 H       2  LIG2        0.0274
     39    H      108.9060  114.5400  129.5850 H       2  LIG2        0.0274
@<TRIPOS>BOND
     1    25     7    1
     2    24     7    1
     3    23     6    1
     4     7     6    1
     5     7    11    1
     6    22     6    1
     7     6     8    1
     8    29    12    1
     9    11    27    1
    10    11     5    2
    11    30    12    1
    12    12     5    1
    13    12    28    1
    14    33    13    1
    15    31    13    1
    16     5     3    1
    17     8    13    1
    18     8    10    2
    19    13    32    1
    20    26    10    1
    21    10     4    1
    22     3    18    1
    23     3    19    1
    24     3     1    1
    25    16     1    1
    26     4    20    1
    27     4     2    1
    28     4    21    1
    29     1     2    1
    30     1    17    1
    31     2     9    2
    32    38    15    1
    33    36    14    1
    34     9    14    1
    35     9    15    1
    36    35    14    1
    37    14    34    1
    38    15    39    1
    39    15    37    1
@<TRIPOS>MOLECULE
5281519_run_22.pdb
 39 39 0 0 0
SMALL
GASTEIGER

@<TRIPOS>ATOM
      1    C      111.3620  107.2950  123.5870 C.3     2  LIG2       -0.0275
      2    C      110.3120  106.2660  123.1160 C.2     2  LIG2       -0.0668
      3    C      110.8620  108.4600  124.4970 C.3     2  LIG2       -0.0283
      4    C      110.3970  104.8960  123.8240 C.3     2  LIG2       -0.0130
      5    C      110.5360  108.0510  125.9290 C.2     2  LIG2       -0.0762
      6    C      109.0410  105.5240  127.4550 C.3     2  LIG2       -0.0286
      7    C      108.8020  107.0620  127.5480 C.3     2  LIG2       -0.0308
      8    C      109.0510  104.9990  126.0180 C.2     2  LIG2       -0.0759
      9    C      109.4060  106.5530  122.1370 C.2     2  LIG2       -0.0762
     10    C      110.2120  104.9920  125.3250 C.2     2  LIG2       -0.0810
     11    C      109.2590  107.8220  126.3040 C.2     2  LIG2       -0.0847
     12    C      111.7440  107.8070  126.8260 C.3     2  LIG2       -0.0438
     13    C      107.6760  104.7500  125.4120 C.3     2  LIG2       -0.0438
     14    C      109.3100  107.9060  121.4350 C.3     2  LIG2       -0.0438
     15    C      108.3780  105.5670  121.5860 C.3     2  LIG2       -0.0438
     16    H      112.1920  106.7740  124.0650 H       2  LIG2        0.0313
     17    H      111.8190  107.7280  122.6970 H       2  LIG2        0.0313
     18    H      111.6200  109.2430  124.5380 H       2  LIG2        0.0313
     19    H      109.9890  108.9310  124.0460 H       2  LIG2        0.0313
     20    H      109.6710  104.1810  123.4500 H       2  LIG2        0.0352
     21    H      111.3660  104.4420  123.6110 H       2  LIG2        0.0352
     22    H      110.0100  105.3030  127.9060 H       2  LIG2        0.0313
     23    H      108.3150  104.9750  128.0570 H       2  LIG2        0.0313
     24    H      107.7340  107.2560  127.6600 H       2  LIG2        0.0310
     25    H      109.2670  107.4750  128.4440 H       2  LIG2        0.0310
     26    H      111.1220  105.2320  125.8550 H       2  LIG2        0.0575
     27    H      108.4750  107.9970  125.5810 H       2  LIG2        0.0572
     28    H      112.4480  107.1180  126.3590 H       2  LIG2        0.0274
     29    H      111.4730  107.3910  127.7950 H       2  LIG2        0.0274
     30    H      112.2620  108.7490  127.0100 H       2  LIG2        0.0274
     31    H      107.2350  103.8540  125.8500 H       2  LIG2        0.0274
     32    H      107.7040  104.6090  124.3340 H       2  LIG2        0.0274
     33    H      107.0130  105.5920  125.6130 H       2  LIG2        0.0274
     34    H      109.4540  107.7860  120.3610 H       2  LIG2        0.0274
     35    H      110.0410  108.6400  121.7680 H       2  LIG2        0.0274
     36    H      108.3240  108.3400  121.6010 H       2  LIG2        0.0274
     37    H      108.2270  105.7230  120.5170 H       2  LIG2        0.0274
     38    H      107.4190  105.7200  122.0790 H       2  LIG2        0.0274
     39    H      108.6550  104.5210  121.6960 H       2  LIG2        0.0274
@<TRIPOS>BOND
     1    34    14    1
     2    37    15    1
     3    14    36    1
     4    14    35    1
     5    14     9    1
     6    15    39    1
     7    15    38    1
     8    15     9    1
     9     9     2    2
    10    17     1    1
    11     2     1    1
    12     2     4    1
    13    20     4    1
    14     1    16    1
    15     1     3    1
    16    21     4    1
    17     4    10    1
    18    19     3    1
    19    32    13    1
    20     3    18    1
    21     3     5    1
    22    10    26    1
    23    10     8    2
    24    13    33    1
    25    13    31    1
    26    13     8    1
    27    27    11    1
    28     5    11    2
    29     5    12    1
    30     8     6    1
    31    11     7    1
    32    28    12    1
    33    12    30    1
    34    12    29    1
    35     6     7    1
    36     6    22    1
    37     6    23    1
    38     7    24    1
    39     7    25    1
@<TRIPOS>MOLECULE
5281519_run_4.pdb
 39 39 0 0 0
SMALL
GASTEIGER

@<TRIPOS>ATOM
      1    C      108.7950  108.2000  124.2170 C.3     2  LIG2       -0.0275
      2    C      109.4760  108.8340  125.4500 C.2     2  LIG2       -0.0668
      3    C      109.7220  107.5410  123.1500 C.3     2  LIG2       -0.0283
      4    C      109.3260  108.0200  126.7540 C.3     2  LIG2       -0.0130
      5    C      110.3290  106.2080  123.5730 C.2     2  LIG2       -0.0762
      6    C      111.6740  104.9060  126.3010 C.3     2  LIG2       -0.0286
      7    C      112.2110  104.9990  124.8400 C.3     2  LIG2       -0.0308
      8    C      111.1930  106.2480  126.8570 C.2     2  LIG2       -0.0759
      9    C      110.1320  110.0280  125.3790 C.2     2  LIG2       -0.0762
     10    C      109.9110  106.6250  126.6520 C.2     2  LIG2       -0.0810
     11    C      111.5940  106.1460  124.0420 C.2     2  LIG2       -0.0847
     12    C      109.3730  105.0210  123.5430 C.3     2  LIG2       -0.0438
     13    C      112.2910  107.1560  127.3930 C.3     2  LIG2       -0.0438
     14    C      110.2910  110.8390  124.0940 C.3     2  LIG2       -0.0438
     15    C      110.7790  110.7380  126.5670 C.3     2  LIG2       -0.0438
     16    H      108.0370  107.4890  124.5480 H       2  LIG2        0.0313
     17    H      108.2100  108.9790  123.7290 H       2  LIG2        0.0313
     18    H      109.1600  107.3750  122.2300 H       2  LIG2        0.0313
     19    H      110.5200  108.2320  122.8770 H       2  LIG2        0.0313
     20    H      109.7840  108.5040  127.6100 H       2  LIG2        0.0352
     21    H      108.2680  107.9470  127.0100 H       2  LIG2        0.0352
     22    H      110.8340  104.2100  126.3110 H       2  LIG2        0.0313
     23    H      112.4170  104.4620  126.9660 H       2  LIG2        0.0313
     24    H      113.2870  105.1730  124.8610 H       2  LIG2        0.0310
     25    H      112.0800  104.0520  124.3160 H       2  LIG2        0.0310
     26    H      109.2320  105.9060  126.2190 H       2  LIG2        0.0575
     27    H      112.1810  107.0540  124.0490 H       2  LIG2        0.0572
     28    H      108.4570  105.2390  124.0910 H       2  LIG2        0.0274
     29    H      109.8050  104.1200  123.9760 H       2  LIG2        0.0274
     30    H      109.1050  104.7890  122.5120 H       2  LIG2        0.0274
     31    H      112.6570  106.7710  128.3460 H       2  LIG2        0.0274
     32    H      111.9570  108.1770  127.5580 H       2  LIG2        0.0274
     33    H      113.1280  107.1960  126.6950 H       2  LIG2        0.0274
     34    H      109.8520  111.8290  124.2140 H       2  LIG2        0.0274
     35    H      109.8210  110.3940  123.2190 H       2  LIG2        0.0274
     36    H      111.3490  110.9600  123.8610 H       2  LIG2        0.0274
     37    H      110.6720  111.8200  126.4760 H       2  LIG2        0.0274
     38    H      111.8450  110.5150  126.5940 H       2  LIG2        0.0274
     39    H      110.3510  110.4790  127.5320 H       2  LIG2        0.0274
@<TRIPOS>BOND
     1    18     3    1
     2    30    12    1
     3    19     3    1
     4     3     5    1
     5     3     1    1
     6    35    14    1
     7    12     5    1
     8    12    29    1
     9    12    28    1
    10     5    11    2
    11    17     1    1
    12    36    14    1
    13    11    27    1
    14    11     7    1
    15    14    34    1
    16    14     9    1
    17     1    16    1
    18     1     2    1
    19    25     7    1
    20     7    24    1
    21     7     6    1
    22     9     2    2
    23     9    15    1
    24     2     4    1
    25    26    10    1
    26     6    22    1
    27     6     8    1
    28     6    23    1
    29    37    15    1
    30    15    38    1
    31    15    39    1
    32    10     4    1
    33    10     8    2
    34    33    13    1
    35     4    21    1
    36     4    20    1
    37     8    13    1
    38    13    32    1
    39    13    31    1
@<TRIPOS>MOLECULE
5281519_run_17.pdb
 39 39 0 0 0
SMALL
GASTEIGER

@<TRIPOS>ATOM
      1    C      109.8390  108.1630  123.1280 C.3     2  LIG2       -0.0275
      2    C      109.7820  106.6880  123.5860 C.2     2  LIG2       -0.0668
      3    C      109.3350  109.2420  124.1340 C.3     2  LIG2       -0.0283
      4    C      111.1550  106.0760  123.9430 C.3     2  LIG2       -0.0130
      5    C      110.2750  109.5080  125.3040 C.2     2  LIG2       -0.0762
      6    C      112.1630  107.7300  127.3590 C.3     2  LIG2       -0.0286
      7    C      111.0610  108.7960  127.6460 C.3     2  LIG2       -0.0308
      8    C      111.7070  106.6300  126.3980 C.2     2  LIG2       -0.0759
      9    C      108.6100  105.9930  123.6400 C.2     2  LIG2       -0.0762
     10    C      111.8570  106.8120  125.0670 C.2     2  LIG2       -0.0810
     11    C      110.0500  108.9410  126.5090 C.2     2  LIG2       -0.0847
     12    C      111.5110  110.3340  124.9690 C.3     2  LIG2       -0.0438
     13    C      110.8920  105.5130  127.0360 C.3     2  LIG2       -0.0438
     14    C      107.2470  106.5910  123.2940 C.3     2  LIG2       -0.0438
     15    C      108.4880  104.5220  124.0300 C.3     2  LIG2       -0.0438
     16    H      110.8510  108.4000  122.7970 H       2  LIG2        0.0313
     17    H      109.2520  108.2450  122.2140 H       2  LIG2        0.0313
     18    H      109.1780  110.1860  123.6100 H       2  LIG2        0.0313
     19    H      108.3520  108.9610  124.5150 H       2  LIG2        0.0313
     20    H      111.0900  105.0310  124.2280 H       2  LIG2        0.0352
     21    H      111.7910  106.0820  123.0580 H       2  LIG2        0.0352
     22    H      113.0200  108.2390  126.9140 H       2  LIG2        0.0313
     23    H      112.5410  107.2950  128.2850 H       2  LIG2        0.0313
     24    H      110.4980  108.5030  128.5320 H       2  LIG2        0.0310
     25    H      111.5070  109.7610  127.8900 H       2  LIG2        0.0310
     26    H      112.4180  107.6720  124.7310 H       2  LIG2        0.0575
     27    H      109.1560  108.3470  126.6360 H       2  LIG2        0.0572
     28    H      112.0410  109.9180  124.1110 H       2  LIG2        0.0274
     29    H      112.2190  110.3890  125.7940 H       2  LIG2        0.0274
     30    H      111.2180  111.3550  124.7240 H       2  LIG2        0.0274
     31    H      111.5450  104.8720  127.6290 H       2  LIG2        0.0274
     32    H      110.3890  104.8830  126.3060 H       2  LIG2        0.0274
     33    H      110.1270  105.9260  127.6930 H       2  LIG2        0.0274
     34    H      106.7850  106.0320  122.4800 H       2  LIG2        0.0274
     35    H      107.2780  107.6320  122.9790 H       2  LIG2        0.0274
     36    H      106.5890  106.5390  124.1610 H       2  LIG2        0.0274
     37    H      107.7040  104.0320  123.4500 H       2  LIG2        0.0274
     38    H      108.2180  104.4390  125.0820 H       2  LIG2        0.0274
     39    H      109.3890  103.9360  123.8610 H       2  LIG2        0.0274
@<TRIPOS>BOND
     1    17     1    1
     2    34    14    1
     3    16     1    1
     4    35    14    1
     5    21     4    1
     6     1     2    1
     7     1     3    1
     8    14     9    1
     9    14    36    1
    10    37    15    1
    11     2     9    2
    12     2     4    1
    13    18     3    1
    14     9    15    1
    15    39    15    1
    16     4    20    1
    17     4    10    1
    18    15    38    1
    19    28    12    1
    20     3    19    1
    21     3     5    1
    22    30    12    1
    23    26    10    1
    24    12     5    1
    25    12    29    1
    26    10     8    2
    27     5    11    2
    28    32    13    1
    29     8    13    1
    30     8     6    1
    31    11    27    1
    32    11     7    1
    33    22     6    1
    34    13    31    1
    35    13    33    1
    36     6     7    1
    37     6    23    1
    38     7    25    1
    39     7    24    1
