# Top-energy pose of compounds ranked according to the score (given in kcal/mol).
@<TRIPOS>MOLECULE
3b66_ligand_run_20.pdb
 46 47 0 0 0
SMALL
GASTEIGER

@<TRIPOS>ATOM
      1    C       27.8840    5.0230    3.1990 C.ar    2  LIG2       -0.0396
      2    C       26.9090    6.0000    3.3630 C.ar    2  LIG2       -0.0421
      3    C       25.6520    5.6690    3.8580 C.ar    2  LIG2        0.0635
      4    C       25.3400    4.3490    4.1990 C.ar    2  LIG2        0.0738
      5    C       26.3360    3.3860    4.0260 C.ar    2  LIG2       -0.0279
      6    C       27.6000    3.7050    3.5330 C.ar    2  LIG2        0.0296
      7    C       23.9810    3.9320    4.7920 C.3     2  LIG2        0.4187
      8    C       24.7220    6.7500    3.9990 C.1     2  LIG2        0.0997
      9    N       23.9860    7.6120    4.1020 N.1     2  LIG2       -0.1909
     10    N       28.5720    2.8070    3.3660 N.pl3   2  LIG2       -0.3169
     11    C       28.5510    1.5370    3.7650 C.3     2  LIG2        0.1514
     12    O       27.6910    0.7120    3.4620 O.3     2  LIG2       -0.3714
     13    C       29.6950    1.1790    4.7150 C.3     2  LIG2        0.1390
     14    O       30.8470    1.9490    4.3660 O.3     2  LIG2       -0.3812
     15    C       30.0070   -0.3170    4.6280 C.3     2  LIG2       -0.0288
     16    C       29.2690    1.5310    6.1300 C.3     2  LIG2        0.1220
     17    O       30.2930    1.0630    7.0230 O.3     2  LIG2       -0.4890
     18    C       29.8780    0.9230    8.3130 C.ar    2  LIG2        0.1208
     19    C       30.3550   -0.1530    9.0570 C.ar    2  LIG2       -0.0178
     20    C       29.9110   -0.3580   10.3600 C.ar    2  LIG2       -0.0302
     21    C       28.9510    1.7920    8.8810 C.ar    2  LIG2       -0.0178
     22    N       28.5830    0.3350   12.1830 N.4     2  LIG2       -0.0929
     23    O       27.3470    0.8820   12.6270 O.3     2  LIG2       -0.0569
     24    C       28.5050    1.5880   10.1840 C.ar    2  LIG2       -0.0302
     25    O       29.4030   -0.3700   13.1040 O.3     2  LIG2       -0.2603
     26    C       28.9850    0.5120   10.9280 C.ar    2  LIG2        0.0981
     27    F       23.7180    2.6420    4.6030 F       2  LIG2       -0.1659
     28    F       23.9760    4.1520    6.1030 F       2  LIG2       -0.1659
     29    F       22.9530    4.5870    4.2590 F       2  LIG2       -0.1659
     30    H       28.8490    5.3290    2.8440 H       2  LIG2        0.0636
     31    H       27.1600    7.0200    3.1120 H       2  LIG2        0.0631
     32    H       25.9890    2.4260    4.3350 H       2  LIG2        0.0642
     33    H       29.4150    3.0940    2.8860 H       2  LIG2        0.1486
     34    H       29.0730    1.2800    2.8400 H       2  LIG2        0.0835
     35    H       27.1780    0.5150    4.2490 H       2  LIG2        0.2119
     36    H       31.6410    1.4920    4.6710 H       2  LIG2        0.2105
     37    H       30.8140   -0.5910    5.3090 H       2  LIG2        0.0260
     38    H       29.1460   -0.9370    4.8850 H       2  LIG2        0.0260
     39    H       30.3310   -0.6060    3.6270 H       2  LIG2        0.0260
     40    H       28.3420    1.0120    6.3730 H       2  LIG2        0.0727
     41    H       29.1170    2.6060    6.2170 H       2  LIG2        0.0727
     42    H       31.1170   -0.7650    8.6210 H       2  LIG2        0.0655
     43    H       30.3450   -1.2030   10.8740 H       2  LIG2        0.0641
     44    H       28.5040    2.5390    8.2570 H       2  LIG2        0.0655
     45    H       27.7730    2.2630   10.5860 H       2  LIG2        0.0641
     46    H       29.7350    0.3470   13.6480 H       2  LIG2        0.2471
@<TRIPOS>BOND
     1    34    11    1
     2    30     1    1
     3    33    10    1
     4    31     2    1
     5     1     2   ar
     6     1     6   ar
     7     2     3   ar
     8    10     6    1
     9    10    11    1
    10    12    11    1
    11    12    35    1
    12     6     5   ar
    13    39    15    1
    14    11    13    1
    15     3     8    1
    16     3     4   ar
    17     8     9    3
    18     5     4   ar
    19     5    32    1
    20     4     7    1
    21    29     7    1
    22    14    36    1
    23    14    13    1
    24    27     7    1
    25    15    13    1
    26    15    38    1
    27    15    37    1
    28    13    16    1
    29     7    28    1
    30    16    41    1
    31    16    40    1
    32    16    17    1
    33    17    18    1
    34    44    21    1
    35    18    21   ar
    36    18    19   ar
    37    42    19    1
    38    21    24   ar
    39    19    20   ar
    40    24    45    1
    41    24    26   ar
    42    20    43    1
    43    20    26   ar
    44    26    22    1
    45    22    23    1
    46    22    25    1
    47    25    46    1
