@<TRIPOS>MOLECULE
3b66_ligand_run_20.pdb
 46 47 0 0 0
SMALL
GASTEIGER

@<TRIPOS>ATOM
      1    C       27.8840    5.0230    3.1990 C.ar    2  LIG2       -0.0396
      2    C       26.9090    6.0000    3.3630 C.ar    2  LIG2       -0.0421
      3    C       25.6520    5.6690    3.8580 C.ar    2  LIG2        0.0635
      4    C       25.3400    4.3490    4.1990 C.ar    2  LIG2        0.0738
      5    C       26.3360    3.3860    4.0260 C.ar    2  LIG2       -0.0279
      6    C       27.6000    3.7050    3.5330 C.ar    2  LIG2        0.0296
      7    C       23.9810    3.9320    4.7920 C.3     2  LIG2        0.4187
      8    C       24.7220    6.7500    3.9990 C.1     2  LIG2        0.0997
      9    N       23.9860    7.6120    4.1020 N.1     2  LIG2       -0.1909
     10    N       28.5720    2.8070    3.3660 N.pl3   2  LIG2       -0.3169
     11    C       28.5510    1.5370    3.7650 C.3     2  LIG2        0.1514
     12    O       27.6910    0.7120    3.4620 O.3     2  LIG2       -0.3714
     13    C       29.6950    1.1790    4.7150 C.3     2  LIG2        0.1390
     14    O       30.8470    1.9490    4.3660 O.3     2  LIG2       -0.3812
     15    C       30.0070   -0.3170    4.6280 C.3     2  LIG2       -0.0288
     16    C       29.2690    1.5310    6.1300 C.3     2  LIG2        0.1220
     17    O       30.2930    1.0630    7.0230 O.3     2  LIG2       -0.4890
     18    C       29.8780    0.9230    8.3130 C.ar    2  LIG2        0.1208
     19    C       30.3550   -0.1530    9.0570 C.ar    2  LIG2       -0.0178
     20    C       29.9110   -0.3580   10.3600 C.ar    2  LIG2       -0.0302
     21    C       28.9510    1.7920    8.8810 C.ar    2  LIG2       -0.0178
     22    N       28.5830    0.3350   12.1830 N.4     2  LIG2       -0.0929
     23    O       27.3470    0.8820   12.6270 O.3     2  LIG2       -0.0569
     24    C       28.5050    1.5880   10.1840 C.ar    2  LIG2       -0.0302
     25    O       29.4030   -0.3700   13.1040 O.3     2  LIG2       -0.2603
     26    C       28.9850    0.5120   10.9280 C.ar    2  LIG2        0.0981
     27    F       23.7180    2.6420    4.6030 F       2  LIG2       -0.1659
     28    F       23.9760    4.1520    6.1030 F       2  LIG2       -0.1659
     29    F       22.9530    4.5870    4.2590 F       2  LIG2       -0.1659
     30    H       28.8490    5.3290    2.8440 H       2  LIG2        0.0636
     31    H       27.1600    7.0200    3.1120 H       2  LIG2        0.0631
     32    H       25.9890    2.4260    4.3350 H       2  LIG2        0.0642
     33    H       29.4150    3.0940    2.8860 H       2  LIG2        0.1486
     34    H       29.0730    1.2800    2.8400 H       2  LIG2        0.0835
     35    H       27.1780    0.5150    4.2490 H       2  LIG2        0.2119
     36    H       31.6410    1.4920    4.6710 H       2  LIG2        0.2105
     37    H       30.8140   -0.5910    5.3090 H       2  LIG2        0.0260
     38    H       29.1460   -0.9370    4.8850 H       2  LIG2        0.0260
     39    H       30.3310   -0.6060    3.6270 H       2  LIG2        0.0260
     40    H       28.3420    1.0120    6.3730 H       2  LIG2        0.0727
     41    H       29.1170    2.6060    6.2170 H       2  LIG2        0.0727
     42    H       31.1170   -0.7650    8.6210 H       2  LIG2        0.0655
     43    H       30.3450   -1.2030   10.8740 H       2  LIG2        0.0641
     44    H       28.5040    2.5390    8.2570 H       2  LIG2        0.0655
     45    H       27.7730    2.2630   10.5860 H       2  LIG2        0.0641
     46    H       29.7350    0.3470   13.6480 H       2  LIG2        0.2471
@<TRIPOS>BOND
     1    34    11    1
     2    30     1    1
     3    33    10    1
     4    31     2    1
     5     1     2   ar
     6     1     6   ar
     7     2     3   ar
     8    10     6    1
     9    10    11    1
    10    12    11    1
    11    12    35    1
    12     6     5   ar
    13    39    15    1
    14    11    13    1
    15     3     8    1
    16     3     4   ar
    17     8     9    3
    18     5     4   ar
    19     5    32    1
    20     4     7    1
    21    29     7    1
    22    14    36    1
    23    14    13    1
    24    27     7    1
    25    15    13    1
    26    15    38    1
    27    15    37    1
    28    13    16    1
    29     7    28    1
    30    16    41    1
    31    16    40    1
    32    16    17    1
    33    17    18    1
    34    44    21    1
    35    18    21   ar
    36    18    19   ar
    37    42    19    1
    38    21    24   ar
    39    19    20   ar
    40    24    45    1
    41    24    26   ar
    42    20    43    1
    43    20    26   ar
    44    26    22    1
    45    22    23    1
    46    22    25    1
    47    25    46    1
@<TRIPOS>MOLECULE
3b66_ligand_run_20.pdb
 46 47 0 0 0
SMALL
GASTEIGER

@<TRIPOS>ATOM
      1    C       26.3490    2.0520    3.7150 C.ar    2  LIG2       -0.0396
      2    C       25.1300    2.7010    3.8780 C.ar    2  LIG2       -0.0421
      3    C       25.0540    4.0890    3.8200 C.ar    2  LIG2        0.0635
      4    C       26.1990    4.8610    3.5990 C.ar    2  LIG2        0.0738
      5    C       27.4110    4.1860    3.4390 C.ar    2  LIG2       -0.0279
      6    C       27.5000    2.7970    3.4930 C.ar    2  LIG2        0.0296
      7    C       26.1680    6.3970    3.4830 C.3     2  LIG2        0.4187
      8    C       23.7510    4.6590    3.9880 C.1     2  LIG2        0.0997
      9    N       22.7130    5.1060    4.1300 N.1     2  LIG2       -0.1909
     10    N       28.6420    2.1270    3.3350 N.pl3   2  LIG2       -0.3169
     11    C       28.9020    0.8950    3.7670 C.3     2  LIG2        0.1514
     12    O       28.2990   -0.1200    3.4210 O.3     2  LIG2       -0.3714
     13    C       30.0190    0.8380    4.8110 C.3     2  LIG2        0.1390
     14    O       31.0110    1.8120    4.4810 O.3     2  LIG2       -0.3812
     15    C       30.6360   -0.5620    4.8500 C.3     2  LIG2       -0.0288
     16    C       29.4220    1.1720    6.1670 C.3     2  LIG2        0.1220
     17    O       30.4420    0.9650    7.1560 O.3     2  LIG2       -0.4890
     18    C       29.9670    0.8630    8.4280 C.ar    2  LIG2        0.1208
     19    C       30.4980   -0.1130    9.2670 C.ar    2  LIG2       -0.0178
     20    C       29.9980   -0.2810   10.5540 C.ar    2  LIG2       -0.0302
     21    C       28.9280    1.6700    8.8870 C.ar    2  LIG2       -0.0178
     22    N       28.5020    0.3860   12.2530 N.4     2  LIG2       -0.0929
     23    O       27.2160    0.8800   12.6040 O.3     2  LIG2       -0.0569
     24    C       28.4260    1.5020   10.1740 C.ar    2  LIG2       -0.0302
     25    O       29.3110   -0.2230   13.2500 O.3     2  LIG2       -0.2603
     26    C       28.9600    0.5260   11.0120 C.ar    2  LIG2        0.0981
     27    F       27.3450    6.9510    3.7560 F       2  LIG2       -0.1659
     28    F       25.8410    6.7460    2.2420 F       2  LIG2       -0.1659
     29    F       25.3020    6.9690    4.3140 F       2  LIG2       -0.1659
     30    H       26.3550    0.9800    3.7360 H       2  LIG2        0.0636
     31    H       24.2460    2.0990    4.0320 H       2  LIG2        0.0631
     32    H       28.2040    4.8760    3.2610 H       2  LIG2        0.0642
     33    H       29.3990    2.5770    2.8350 H       2  LIG2        0.1486
     34    H       29.5440    0.7670    2.8910 H       2  LIG2        0.0835
     35    H       27.9140   -0.5180    4.2060 H       2  LIG2        0.2119
     36    H       31.6880    1.4020    3.9270 H       2  LIG2        0.2105
     37    H       31.4270   -0.6220    5.5990 H       2  LIG2        0.0260
     38    H       29.9030   -1.3330    5.0950 H       2  LIG2        0.0260
     39    H       31.0890   -0.8320    3.8950 H       2  LIG2        0.0260
     40    H       28.5970    0.4920    6.3810 H       2  LIG2        0.0727
     41    H       29.0570    2.1980    6.1710 H       2  LIG2        0.0727
     42    H       31.3390   -0.6720    8.9140 H       2  LIG2        0.0655
     43    H       30.4780   -1.0460   11.1460 H       2  LIG2        0.0641
     44    H       28.4510    2.3290    8.1910 H       2  LIG2        0.0655
     45    H       27.6100    2.1250   10.4910 H       2  LIG2        0.0641
     46    H       29.5720    0.5390   13.7720 H       2  LIG2        0.2471
@<TRIPOS>BOND
     1    28     7    1
     2    33    10    1
     3    34    11    1
     4    32     5    1
     5    10     6    1
     6    10    11    1
     7    12    11    1
     8    12    35    1
     9     5     6   ar
    10     5     4   ar
    11     7     4    1
    12     7    27    1
    13     7    29    1
    14     6     1   ar
    15     4     3   ar
    16     1    30    1
    17     1     2   ar
    18    11    13    1
    19     3     2   ar
    20     3     8    1
    21     2    31    1
    22    39    15    1
    23    36    14    1
    24     8     9    3
    25    14    13    1
    26    13    15    1
    27    13    16    1
    28    15    38    1
    29    15    37    1
    30    16    41    1
    31    16    40    1
    32    16    17    1
    33    17    18    1
    34    44    21    1
    35    18    21   ar
    36    18    19   ar
    37    21    24   ar
    38    42    19    1
    39    19    20   ar
    40    24    45    1
    41    24    26   ar
    42    20    26   ar
    43    20    43    1
    44    26    22    1
    45    22    23    1
    46    22    25    1
    47    25    46    1
@<TRIPOS>MOLECULE
3b66_ligand_run_10.pdb
 46 47 0 0 0
SMALL
GASTEIGER

@<TRIPOS>ATOM
      1    C       29.2770    1.6260    7.5330 C.ar    2  LIG2       -0.0396
      2    C       28.7420    1.8550    8.7950 C.ar    2  LIG2       -0.0421
      3    C       28.9960    0.9770    9.8430 C.ar    2  LIG2        0.0635
      4    C       29.7920   -0.1570    9.6500 C.ar    2  LIG2        0.0738
      5    C       30.3180   -0.3660    8.3740 C.ar    2  LIG2       -0.0279
      6    C       30.0730    0.5080    7.3160 C.ar    2  LIG2        0.0296
      7    C       30.1430   -1.1410   10.7830 C.3     2  LIG2        0.4187
      8    C       28.4070    1.3090   11.1060 C.1     2  LIG2        0.0997
      9    N       27.9310    1.5760   12.1040 N.1     2  LIG2       -0.1909
     10    N       30.5690    0.3360    6.0910 N.pl3   2  LIG2       -0.3169
     11    C       30.2360    1.0230    5.0000 C.3     2  LIG2        0.1514
     12    O       30.6980    2.1180    4.6820 O.3     2  LIG2       -0.3714
     13    C       29.1480    0.3470    4.1640 C.3     2  LIG2        0.1390
     14    O       28.4300   -0.5710    4.9910 O.3     2  LIG2       -0.3812
     15    C       29.7730   -0.3830    2.9730 C.3     2  LIG2       -0.0288
     16    C       28.1950    1.4190    3.6630 C.3     2  LIG2        0.1220
     17    O       27.7550    2.1770    4.8010 O.3     2  LIG2       -0.4890
     18    C       26.8240    3.1260    4.5060 C.ar    2  LIG2        0.1208
     19    C       27.2470    4.4340    4.2830 C.ar    2  LIG2       -0.0178
     20    C       26.3180    5.4390    4.0320 C.ar    2  LIG2       -0.0302
     21    C       25.4630    2.8320    4.4790 C.ar    2  LIG2       -0.0178
     22    N       24.0720    6.0990    3.7360 N.4     2  LIG2       -0.0929
     23    O       24.5080    7.3940    3.3420 O.3     2  LIG2       -0.0569
     24    C       24.5330    3.8370    4.2300 C.ar    2  LIG2       -0.0302
     25    O       22.6810    5.8450    3.8760 O.3     2  LIG2       -0.2603
     26    C       24.9580    5.1440    4.0050 C.ar    2  LIG2        0.0981
     27    F       30.4130   -2.3620   10.3300 F       2  LIG2       -0.1659
     28    F       31.2190   -0.7100   11.4340 F       2  LIG2       -0.1659
     29    F       29.1600   -1.2960   11.6650 F       2  LIG2       -0.1659
     30    H       29.0800    2.3460    6.7630 H       2  LIG2        0.0636
     31    H       28.1400    2.7410    8.9420 H       2  LIG2        0.0631
     32    H       30.9190   -1.2470    8.3540 H       2  LIG2        0.0642
     33    H       31.2750   -0.3750    5.9530 H       2  LIG2        0.1486
     34    H       31.0870    0.5580    4.4960 H       2  LIG2        0.0835
     35    H       30.0350    2.7860    4.8700 H       2  LIG2        0.2119
     36    H       29.0420   -1.2320    5.3390 H       2  LIG2        0.2105
     37    H       29.0080   -0.8610    2.3590 H       2  LIG2        0.0260
     38    H       30.3330    0.2890    2.3210 H       2  LIG2        0.0260
     39    H       30.4540   -1.1730    3.2930 H       2  LIG2        0.0260
     40    H       27.3220    0.9500    3.2090 H       2  LIG2        0.0727
     41    H       28.6940    2.0480    2.9270 H       2  LIG2        0.0727
     42    H       28.3000    4.6200    4.2410 H       2  LIG2        0.0655
     43    H       26.7300    6.4220    3.8500 H       2  LIG2        0.0641
     44    H       25.1490    1.8510    4.7730 H       2  LIG2        0.0655
     45    H       23.4890    3.5820    4.2380 H       2  LIG2        0.0641
     46    H       22.4820    6.3280    4.6800 H       2  LIG2        0.2471
@<TRIPOS>BOND
     1    38    15    1
     2    37    15    1
     3    41    16    1
     4    15    39    1
     5    15    13    1
     6    40    16    1
     7    23    22    1
     8    16    13    1
     9    16    17    1
    10    22    25    1
    11    22    26    1
    12    43    20    1
    13    25    46    1
    14    26    20   ar
    15    26    24   ar
    16    20    19   ar
    17    13    14    1
    18    13    11    1
    19    24    45    1
    20    24    21   ar
    21    42    19    1
    22    19    18   ar
    23    21    18   ar
    24    21    44    1
    25    34    11    1
    26    18    17    1
    27    12    35    1
    28    12    11    1
    29    14    36    1
    30    11    10    1
    31    33    10    1
    32    10     6    1
    33    30     1    1
    34     6     1   ar
    35     6     5   ar
    36     1     2   ar
    37    32     5    1
    38     5     4   ar
    39     2    31    1
    40     2     3   ar
    41     4     3   ar
    42     4     7    1
    43     3     8    1
    44    27     7    1
    45     7    28    1
    46     7    29    1
    47     8     9    3
@<TRIPOS>MOLECULE
3b66_ligand_run_21.pdb
 46 47 0 0 0
SMALL
GASTEIGER

@<TRIPOS>ATOM
      1    C       26.9710    3.4110    4.8800 C.ar    2  LIG2       -0.0396
      2    C       25.7440    4.0260    4.6640 C.ar    2  LIG2       -0.0421
      3    C       24.7530    3.3900    3.9240 C.ar    2  LIG2        0.0635
      4    C       24.9700    2.1200    3.3790 C.ar    2  LIG2        0.0738
      5    C       26.2100    1.5230    3.6090 C.ar    2  LIG2       -0.0279
      6    C       27.2100    2.1490    4.3510 C.ar    2  LIG2        0.0296
      7    C       23.8950    1.3490    2.5880 C.3     2  LIG2        0.4187
      8    C       23.5200    4.1030    3.7680 C.1     2  LIG2        0.0997
      9    N       22.5460    4.6790    3.6430 N.1     2  LIG2       -0.1909
     10    N       28.4000    1.5980    4.5930 N.pl3   2  LIG2       -0.3169
     11    C       28.7010    0.3030    4.5190 C.3     2  LIG2        0.1514
     12    O       27.8820   -0.6120    4.4470 O.3     2  LIG2       -0.3714
     13    C       30.2020    0.0220    4.5900 C.3     2  LIG2        0.1390
     14    O       30.9100    1.1480    4.0660 O.3     2  LIG2       -0.3812
     15    C       30.5420   -1.2410    3.7940 C.3     2  LIG2       -0.0288
     16    C       30.5840   -0.1740    6.0470 C.3     2  LIG2        0.1220
     17    O       30.2730    1.0420    6.7470 O.3     2  LIG2       -0.4890
     18    C       29.8710    0.8510    8.0330 C.ar    2  LIG2        0.1208
     19    C       28.8450    1.6440    8.5400 C.ar    2  LIG2       -0.0178
     20    C       28.4460    1.5130    9.8670 C.ar    2  LIG2       -0.0302
     21    C       30.4980   -0.0730    8.8660 C.ar    2  LIG2       -0.0178
     22    N       28.6710    0.4430   11.9580 N.4     2  LIG2       -0.0929
     23    O       27.3840    0.8950   12.3590 O.3     2  LIG2       -0.0569
     24    C       30.1010   -0.2030   10.1940 C.ar    2  LIG2       -0.0302
     25    O       29.5410   -0.1310   12.9240 O.3     2  LIG2       -0.2603
     26    C       29.0730    0.5900   10.6980 C.ar    2  LIG2        0.0981
     27    F       24.4210    0.4990    1.7110 F       2  LIG2       -0.1659
     28    F       23.1410    0.6430    3.4260 F       2  LIG2       -0.1659
     29    F       23.0950    2.1420    1.8810 F       2  LIG2       -0.1659
     30    H       27.6930    3.9260    5.4820 H       2  LIG2        0.0636
     31    H       25.5760    5.0010    5.1000 H       2  LIG2        0.0631
     32    H       26.2510    0.5550    3.1630 H       2  LIG2        0.0642
     33    H       29.1670    2.2040    4.8540 H       2  LIG2        0.1486
     34    H       28.6420    0.3930    3.4310 H       2  LIG2        0.0835
     35    H       27.9910   -1.1700    5.2210 H       2  LIG2        0.2119
     36    H       31.8150    0.8840    3.8540 H       2  LIG2        0.2105
     37    H       31.6100   -1.4610    3.8450 H       2  LIG2        0.0260
     38    H       30.0150   -2.1210    4.1660 H       2  LIG2        0.0260
     39    H       30.2960   -1.1320    2.7370 H       2  LIG2        0.0260
     40    H       31.6570   -0.3470    6.1250 H       2  LIG2        0.0727
     41    H       30.0470   -1.0270    6.4620 H       2  LIG2        0.0727
     42    H       28.3350    2.2960    7.8620 H       2  LIG2        0.0655
     43    H       27.6300    2.1520   10.1740 H       2  LIG2        0.0641
     44    H       31.3630   -0.5850    8.4970 H       2  LIG2        0.0655
     45    H       30.6190   -0.9090   10.8160 H       2  LIG2        0.0641
     46    H       29.7960    0.6440   13.4300 H       2  LIG2        0.2471
@<TRIPOS>BOND
     1    27     7    1
     2    29     7    1
     3     7     4    1
     4     7    28    1
     5    39    15    1
     6    32     5    1
     7     4     5   ar
     8     4     3   ar
     9    34    11    1
    10     5     6   ar
    11     9     8    3
    12     8     3    1
    13    15    37    1
    14    15    38    1
    15    15    13    1
    16    36    14    1
    17     3     2   ar
    18    14    13    1
    19     6    10    1
    20     6     1   ar
    21    12    11    1
    22    12    35    1
    23    11    13    1
    24    11    10    1
    25    13    16    1
    26    10    33    1
    27     2     1   ar
    28     2    31    1
    29     1    30    1
    30    16    40    1
    31    16    41    1
    32    16    17    1
    33    17    18    1
    34    42    19    1
    35    18    19   ar
    36    18    21   ar
    37    44    21    1
    38    19    20   ar
    39    21    24   ar
    40    20    43    1
    41    20    26   ar
    42    24    26   ar
    43    24    45    1
    44    26    22    1
    45    22    23    1
    46    22    25    1
    47    25    46    1
@<TRIPOS>MOLECULE
3b66_ligand_run_16.pdb
 46 47 0 0 0
SMALL
GASTEIGER

@<TRIPOS>ATOM
      1    C       26.0950    1.1830    3.8710 C.ar    2  LIG2       -0.0396
      2    C       25.2210    2.1760    4.2980 C.ar    2  LIG2       -0.0421
      3    C       25.5330    3.5190    4.1180 C.ar    2  LIG2        0.0635
      4    C       26.7320    3.9010    3.5090 C.ar    2  LIG2        0.0738
      5    C       27.5940    2.8860    3.0890 C.ar    2  LIG2       -0.0279
      6    C       27.2920    1.5360    3.2620 C.ar    2  LIG2        0.0296
      7    C       27.1110    5.3710    3.2450 C.3     2  LIG2        0.4187
      8    C       24.5610    4.4640    4.5820 C.1     2  LIG2        0.0997
      9    N       23.7860    5.2080    4.9590 N.1     2  LIG2       -0.1909
     10    N       28.0930    0.5480    2.8630 N.pl3   2  LIG2       -0.3169
     11    C       28.5730   -0.4350    3.6220 C.3     2  LIG2        0.1514
     12    O       27.9140   -1.1070    4.4130 O.3     2  LIG2       -0.3714
     13    C       30.0820   -0.6380    3.4730 C.3     2  LIG2        0.1390
     14    O       30.6150    0.4180    2.6710 O.3     2  LIG2       -0.3812
     15    C       30.3720   -1.9960    2.8300 C.3     2  LIG2       -0.0288
     16    C       30.7100   -0.5820    4.8550 C.3     2  LIG2        0.1220
     17    O       30.4850    0.7350    5.3840 O.3     2  LIG2       -0.4890
     18    C       30.1150    0.7480    6.6940 C.ar    2  LIG2        0.1208
     19    C       29.1090    1.6210    7.0990 C.ar    2  LIG2       -0.0178
     20    C       28.7440    1.7000    8.4390 C.ar    2  LIG2       -0.0302
     21    C       30.7550   -0.0460    7.6420 C.ar    2  LIG2       -0.0178
     22    N       29.0140    0.9580   10.6630 N.4     2  LIG2       -0.0929
     23    O       29.4140   -0.0620   11.5690 O.3     2  LIG2       -0.0569
     24    C       30.3910    0.0330    8.9830 C.ar    2  LIG2       -0.0302
     25    O       28.1830    2.0140   11.1240 O.3     2  LIG2       -0.2603
     26    C       29.3840    0.9060    9.3860 C.ar    2  LIG2        0.0981
     27    F       26.0610    6.1140    2.9070 F       2  LIG2       -0.1659
     28    F       27.6390    5.9030    4.3430 F       2  LIG2       -0.1659
     29    F       27.9860    5.5170    2.2540 F       2  LIG2       -0.1659
     30    H       25.7990    0.1610    4.0020 H       2  LIG2        0.0636
     31    H       24.2890    1.8750    4.7540 H       2  LIG2        0.0631
     32    H       28.4630    3.2970    2.6260 H       2  LIG2        0.0642
     33    H       28.3710    0.5160    1.8900 H       2  LIG2        0.1486
     34    H       28.2760   -1.1330    2.8360 H       2  LIG2        0.0835
     35    H       28.0430   -0.7440    5.2920 H       2  LIG2        0.2119
     36    H       31.5690    0.4740    2.8110 H       2  LIG2        0.2105
     37    H       31.4460   -2.1610    2.7270 H       2  LIG2        0.0260
     38    H       29.9750   -2.8270    3.4150 H       2  LIG2        0.0260
     39    H       29.9490   -2.0690    1.8270 H       2  LIG2        0.0260
     40    H       31.7860   -0.7370    4.7740 H       2  LIG2        0.0727
     41    H       30.2790   -1.3530    5.4920 H       2  LIG2        0.0727
     42    H       28.5870    2.1690    6.3420 H       2  LIG2        0.0655
     43    H       27.9420    2.3880    8.6650 H       2  LIG2        0.0641
     44    H       31.6060   -0.6200    7.3350 H       2  LIG2        0.0655
     45    H       30.9200   -0.5770    9.6940 H       2  LIG2        0.0641
     46    H       27.3440    1.5610   11.2300 H       2  LIG2        0.2471
@<TRIPOS>BOND
     1    39    15    1
     2    33    10    1
     3    29     7    1
     4    32     5    1
     5    14    36    1
     6    14    13    1
     7    37    15    1
     8    15    38    1
     9    15    13    1
    10    34    11    1
    11    10     6    1
    12    10    11    1
    13    27     7    1
    14     5     6   ar
    15     5     4   ar
    16     7     4    1
    17     7    28    1
    18     6     1   ar
    19    13    11    1
    20    13    16    1
    21     4     3   ar
    22    11    12    1
    23     1    30    1
    24     1     2   ar
    25     3     2   ar
    26     3     8    1
    27     2    31    1
    28    12    35    1
    29     8     9    3
    30    40    16    1
    31    16    17    1
    32    16    41    1
    33    17    18    1
    34    42    19    1
    35    18    19   ar
    36    18    21   ar
    37    19    20   ar
    38    44    21    1
    39    21    24   ar
    40    20    43    1
    41    20    26   ar
    42    24    26   ar
    43    24    45    1
    44    26    22    1
    45    22    25    1
    46    22    23    1
    47    25    46    1
@<TRIPOS>MOLECULE
3b66_ligand_run_21.pdb
 46 47 0 0 0
SMALL
GASTEIGER

@<TRIPOS>ATOM
      1    C       26.5480    1.5560    2.9220 C.ar    2  LIG2       -0.0396
      2    C       25.2880    2.0670    2.6320 C.ar    2  LIG2       -0.0421
      3    C       24.6690    2.9620    3.4990 C.ar    2  LIG2        0.0635
      4    C       25.2980    3.3650    4.6810 C.ar    2  LIG2        0.0738
      5    C       26.5630    2.8380    4.9510 C.ar    2  LIG2       -0.0279
      6    C       27.1940    1.9420    4.0900 C.ar    2  LIG2        0.0296
      7    C       24.6810    4.3850    5.6570 C.3     2  LIG2        0.4187
      8    C       23.3780    3.4390    3.1030 C.1     2  LIG2        0.0997
      9    N       22.3490    3.8080    2.7850 N.1     2  LIG2       -0.1909
     10    N       28.4030    1.4310    4.3190 N.pl3   2  LIG2       -0.3169
     11    C       28.7270    0.1390    4.3250 C.3     2  LIG2        0.1514
     12    O       27.9250   -0.7940    4.3030 O.3     2  LIG2       -0.3714
     13    C       30.2330   -0.1110    4.4200 C.3     2  LIG2        0.1390
     14    O       30.9250    1.0140    3.8740 O.3     2  LIG2       -0.3812
     15    C       30.6070   -1.3870    3.6630 C.3     2  LIG2       -0.0288
     16    C       30.6010   -0.2600    5.8860 C.3     2  LIG2        0.1220
     17    O       30.2650    0.9710    6.5470 O.3     2  LIG2       -0.4890
     18    C       29.9150    0.8180    7.8540 C.ar    2  LIG2        0.1208
     19    C       28.9090    1.6270    8.3780 C.ar    2  LIG2       -0.0178
     20    C       28.5630    1.5350    9.7220 C.ar    2  LIG2       -0.0302
     21    C       30.5730   -0.0830    8.6870 C.ar    2  LIG2       -0.0178
     22    N       28.8700    0.5250   11.8330 N.4     2  LIG2       -0.0929
     23    O       27.5990    0.9890   12.2710 O.3     2  LIG2       -0.0569
     24    C       30.2280   -0.1740   10.0330 C.ar    2  LIG2       -0.0302
     25    O       29.7760   -0.0210   12.7800 O.3     2  LIG2       -0.2603
     26    C       29.2210    0.6350   10.5540 C.ar    2  LIG2        0.0981
     27    F       25.0170    4.1460    6.9220 F       2  LIG2       -0.1659
     28    F       25.1050    5.6080    5.3550 F       2  LIG2       -0.1659
     29    F       23.3510    4.3920    5.6360 F       2  LIG2       -0.1659
     30    H       26.9990    0.8940    2.2100 H       2  LIG2        0.0636
     31    H       24.8140    1.7650    1.7090 H       2  LIG2        0.0631
     32    H       26.9460    3.2290    5.8660 H       2  LIG2        0.0642
     33    H       29.1680    2.0670    4.5030 H       2  LIG2        0.1486
     34    H       28.6740    0.1630    3.2330 H       2  LIG2        0.0835
     35    H       28.0170   -1.2820    5.1240 H       2  LIG2        0.2119
     36    H       31.8490    0.7760    3.7210 H       2  LIG2        0.2105
     37    H       31.6770   -1.5860    3.7320 H       2  LIG2        0.0260
     38    H       30.0920   -2.2670    4.0520 H       2  LIG2        0.0260
     39    H       30.3710   -1.3130    2.6010 H       2  LIG2        0.0260
     40    H       31.6750   -0.4150    5.9800 H       2  LIG2        0.0727
     41    H       30.0720   -1.1080    6.3190 H       2  LIG2        0.0727
     42    H       28.3730    2.2590    7.7020 H       2  LIG2        0.0655
     43    H       27.7600    2.1830   10.0430 H       2  LIG2        0.0641
     44    H       31.4230   -0.6070    8.3000 H       2  LIG2        0.0655
     45    H       30.7710   -0.8630   10.6550 H       2  LIG2        0.0641
     46    H       30.0520    0.7670   13.2530 H       2  LIG2        0.2471
@<TRIPOS>BOND
     1    31     2    1
     2    30     1    1
     3    39    15    1
     4     2     1   ar
     5     2     3   ar
     6     9     8    3
     7     1     6   ar
     8     8     3    1
     9    34    11    1
    10     3     4   ar
    11    15    37    1
    12    15    38    1
    13    15    13    1
    14    36    14    1
    15    14    13    1
    16     6    10    1
    17     6     5   ar
    18    12    11    1
    19    12    35    1
    20    10    11    1
    21    10    33    1
    22    11    13    1
    23    13    16    1
    24     4     5   ar
    25     4     7    1
    26     5    32    1
    27    28     7    1
    28    29     7    1
    29     7    27    1
    30    16    40    1
    31    16    41    1
    32    16    17    1
    33    17    18    1
    34    42    19    1
    35    18    19   ar
    36    18    21   ar
    37    44    21    1
    38    19    20   ar
    39    21    24   ar
    40    20    43    1
    41    20    26   ar
    42    24    26   ar
    43    24    45    1
    44    26    22    1
    45    22    23    1
    46    22    25    1
    47    25    46    1
@<TRIPOS>MOLECULE
3b66_ligand_run_2.pdb
 46 47 0 0 0
SMALL
GASTEIGER

@<TRIPOS>ATOM
      1    C       31.2240   -0.2050    8.1330 C.ar    2  LIG2       -0.0396
      2    C       31.2240   -0.3280    9.5170 C.ar    2  LIG2       -0.0421
      3    C       30.2060    0.2340   10.2790 C.ar    2  LIG2        0.0635
      4    C       29.1610    0.9380    9.6700 C.ar    2  LIG2        0.0738
      5    C       29.1830    1.0490    8.2790 C.ar    2  LIG2       -0.0279
      6    C       30.1970    0.4880    7.5040 C.ar    2  LIG2        0.0296
      7    C       27.9840    1.5450   10.4580 C.3     2  LIG2        0.4187
      8    C       30.2920    0.0420   11.6950 C.1     2  LIG2        0.0997
      9    N       30.3710   -0.1100   12.8210 N.1     2  LIG2       -0.1909
     10    N       30.2370    0.5710    6.1740 N.pl3   2  LIG2       -0.3169
     11    C       29.4040    1.2630    5.4000 C.3     2  LIG2        0.1514
     12    O       29.0250    2.4130    5.6150 O.3     2  LIG2       -0.3714
     13    C       28.8850    0.4680    4.2010 C.3     2  LIG2        0.1390
     14    O       28.3340   -0.7660    4.6660 O.3     2  LIG2       -0.3812
     15    C       30.0200    0.2060    3.2080 C.3     2  LIG2       -0.0288
     16    C       27.7930    1.2800    3.5260 C.3     2  LIG2        0.1220
     17    O       26.7680    1.5280    4.5010 O.3     2  LIG2       -0.4890
     18    C       26.0610    2.6710    4.2800 C.ar    2  LIG2        0.1208
     19    C       26.7500    3.8770    4.1840 C.ar    2  LIG2       -0.0178
     20    C       26.0560    5.0710    4.0130 C.ar    2  LIG2       -0.0302
     21    C       24.6710    2.6680    4.2060 C.ar    2  LIG2       -0.0178
     22    N       24.0040    6.2040    3.7450 N.4     2  LIG2       -0.0929
     23    O       24.6850    7.3630    3.2790 O.3     2  LIG2       -0.0569
     24    C       23.9750    3.8620    4.0360 C.ar    2  LIG2       -0.0302
     25    O       22.6160    6.2830    4.0380 O.3     2  LIG2       -0.2603
     26    C       24.6660    5.0670    3.9390 C.ar    2  LIG2        0.0981
     27    F       27.3520    2.4960    9.7760 F       2  LIG2       -0.1659
     28    F       27.0950    0.5970   10.7380 F       2  LIG2       -0.1659
     29    F       28.3560    2.1130   11.6010 F       2  LIG2       -0.1659
     30    H       32.0130   -0.6810    7.5840 H       2  LIG2        0.0636
     31    H       32.0250   -0.8860    9.9810 H       2  LIG2        0.0631
     32    H       28.3310    1.5880    7.9310 H       2  LIG2        0.0642
     33    H       30.9680    0.0730    5.6830 H       2  LIG2        0.1486
     34    H       30.2810    1.6830    4.9010 H       2  LIG2        0.0835
     35    H       28.1380    2.3710    5.9790 H       2  LIG2        0.2119
     36    H       28.9570   -1.1850    5.2730 H       2  LIG2        0.2105
     37    H       29.6630   -0.3510    2.3410 H       2  LIG2        0.0260
     38    H       30.4670    1.1280    2.8350 H       2  LIG2        0.0260
     39    H       30.8190   -0.3890    3.6540 H       2  LIG2        0.0260
     40    H       27.3560    0.7010    2.7120 H       2  LIG2        0.0727
     41    H       28.2080    2.2060    3.1300 H       2  LIG2        0.0727
     42    H       27.8190    3.8440    4.1750 H       2  LIG2        0.0655
     43    H       26.6660    5.9590    3.9270 H       2  LIG2        0.0641
     44    H       24.1530    1.7520    4.4040 H       2  LIG2        0.0655
     45    H       22.9010    3.8290    4.0050 H       2  LIG2        0.0641
     46    H       22.6230    6.7970    4.8480 H       2  LIG2        0.2471
@<TRIPOS>BOND
     1    37    15    1
     2    40    16    1
     3    38    15    1
     4    41    16    1
     5    15    39    1
     6    15    13    1
     7    23    22    1
     8    16    13    1
     9    16    17    1
    10    22    26    1
    11    22    25    1
    12    43    20    1
    13    26    20   ar
    14    26    24   ar
    15    45    24    1
    16    20    19   ar
    17    24    21   ar
    18    25    46    1
    19    42    19    1
    20    19    18   ar
    21    13    14    1
    22    13    11    1
    23    21    18   ar
    24    21    44    1
    25    18    17    1
    26    14    36    1
    27    34    11    1
    28    11    12    1
    29    11    10    1
    30    12    35    1
    31    33    10    1
    32    10     6    1
    33     6     1   ar
    34     6     5   ar
    35    30     1    1
    36    32     5    1
    37     1     2   ar
    38     5     4   ar
    39     2    31    1
    40     2     3   ar
    41     4     3   ar
    42     4     7    1
    43    27     7    1
    44     3     8    1
    45     7    28    1
    46     7    29    1
    47     8     9    3
@<TRIPOS>MOLECULE
3b66_ligand_run_4.pdb
 46 47 0 0 0
SMALL
GASTEIGER

@<TRIPOS>ATOM
      1    C       30.2030    1.6100    7.5970 C.ar    2  LIG2       -0.0396
      2    C       30.8420    1.4200    8.8170 C.ar    2  LIG2       -0.0421
      3    C       30.6290    0.2600    9.5550 C.ar    2  LIG2        0.0635
      4    C       29.7660   -0.7370    9.0880 C.ar    2  LIG2        0.0738
      5    C       29.1370   -0.5240    7.8610 C.ar    2  LIG2       -0.0279
      6    C       29.3430    0.6330    7.1110 C.ar    2  LIG2        0.0296
      7    C       29.5250   -2.0600    9.8410 C.3     2  LIG2        0.4187
      8    C       31.3420    0.1560   10.7930 C.1     2  LIG2        0.0997
      9    N       31.9070    0.0830   11.7780 N.1     2  LIG2       -0.1909
     10    N       28.7620    0.8590    5.9330 N.pl3   2  LIG2       -0.3169
     11    C       28.2430   -0.0580    5.1190 C.3     2  LIG2        0.1514
     12    O       27.3580   -0.8570    5.4230 O.3     2  LIG2       -0.3714
     13    C       28.8950   -0.0840    3.7360 C.3     2  LIG2        0.1390
     14    O       28.3400   -1.1650    2.9830 O.3     2  LIG2       -0.3812
     15    C       30.4100   -0.2470    3.8670 C.3     2  LIG2       -0.0288
     16    C       28.5800    1.2260    3.0350 C.3     2  LIG2        0.1220
     17    O       27.2020    1.1850    2.6310 O.3     2  LIG2       -0.4890
     18    C       26.4980    2.3050    2.9530 C.ar    2  LIG2        0.1208
     19    C       25.1760    2.1710    3.3680 C.ar    2  LIG2       -0.0178
     20    C       24.4110    3.2970    3.6530 C.ar    2  LIG2       -0.0302
     21    C       27.0490    3.5780    2.8220 C.ar    2  LIG2       -0.0178
     22    N       24.2400    5.6440    3.8240 N.4     2  LIG2       -0.0929
     23    O       24.8460    6.9310    3.8540 O.3     2  LIG2       -0.0569
     24    C       26.2840    4.7050    3.1060 C.ar    2  LIG2       -0.0302
     25    O       22.8650    5.5140    4.1560 O.3     2  LIG2       -0.2603
     26    C       24.9620    4.5680    3.5220 C.ar    2  LIG2        0.0981
     27    F       30.5990   -2.8450    9.8470 F       2  LIG2       -0.1659
     28    F       29.2100   -1.8050   11.1070 F       2  LIG2       -0.1659
     29    F       28.5510   -2.7940    9.3120 F       2  LIG2       -0.1659
     30    H       30.4220    2.5050    7.0490 H       2  LIG2        0.0636
     31    H       31.5180    2.1870    9.1660 H       2  LIG2        0.0631
     32    H       28.5220   -1.3560    7.6030 H       2  LIG2        0.0642
     33    H       28.6910    1.8140    5.6060 H       2  LIG2        0.1486
     34    H       27.4590    0.6620    4.8740 H       2  LIG2        0.0835
     35    H       27.7490   -1.7320    5.4650 H       2  LIG2        0.2119
     36    H       28.6640   -1.1190    2.0740 H       2  LIG2        0.2105
     37    H       30.8910   -0.2550    2.8880 H       2  LIG2        0.0260
     38    H       30.8670    0.5610    4.4410 H       2  LIG2        0.0260
     39    H       30.6770   -1.1860    4.3540 H       2  LIG2        0.0260
     40    H       29.1950    1.3200    2.1400 H       2  LIG2        0.0727
     41    H       28.7800    2.0640    3.7020 H       2  LIG2        0.0727
     42    H       24.7990    1.1820    3.5260 H       2  LIG2        0.0655
     43    H       23.4010    3.1040    3.9870 H       2  LIG2        0.0641
     44    H       28.0230    3.6680    2.3860 H       2  LIG2        0.0655
     45    H       26.7310    5.6740    2.9740 H       2  LIG2        0.0641
     46    H       22.8870    5.6550    5.1050 H       2  LIG2        0.2471
@<TRIPOS>BOND
     1    36    14    1
     2    40    16    1
     3    44    21    1
     4    17    18    1
     5    17    16    1
     6    21    18   ar
     7    21    24   ar
     8    37    15    1
     9    18    19   ar
    10    45    24    1
    11    14    13    1
    12    16    41    1
    13    16    13    1
    14    24    26   ar
    15    19    42    1
    16    19    20   ar
    17    26    20   ar
    18    26    22    1
    19    20    43    1
    20    13    15    1
    21    13    11    1
    22    22    23    1
    23    22    25    1
    24    15    39    1
    25    15    38    1
    26    25    46    1
    27    34    11    1
    28    11    12    1
    29    11    10    1
    30    12    35    1
    31    33    10    1
    32    10     6    1
    33    30     1    1
    34     6     1   ar
    35     6     5   ar
    36     1     2   ar
    37    32     5    1
    38     5     4   ar
    39     2    31    1
    40     2     3   ar
    41     4     3   ar
    42     4     7    1
    43    29     7    1
    44     3     8    1
    45     7    27    1
    46     7    28    1
    47     8     9    3
