# Top-energy pose of compounds ranked according to the score (given in kcal/mol).
@<TRIPOS>MOLECULE
5281519_run_5.pdb
 39 39 0 0 0
SMALL
GASTEIGER

@<TRIPOS>ATOM
      1    C       19.3270   11.8100  -18.1700 C.3     2  LIG2       -0.0275
      2    C       19.1650   11.7040  -19.7020 C.2     2  LIG2       -0.0668
      3    C       20.2370   12.9550  -17.6270 C.3     2  LIG2       -0.0283
      4    C       17.7940   12.1770  -20.2350 C.3     2  LIG2       -0.0130
      5    C       19.6250   14.3490  -17.7170 C.2     2  LIG2       -0.0762
      6    C       17.8550   16.0900  -19.9040 C.3     2  LIG2       -0.0286
      7    C       19.1900   16.4240  -19.1700 C.3     2  LIG2       -0.0308
      8    C       17.8700   14.7270  -20.5990 C.2     2  LIG2       -0.0759
      9    C       20.1530   11.2080  -20.5020 C.2     2  LIG2       -0.0762
     10    C       17.4990   13.6270  -19.9050 C.2     2  LIG2       -0.0810
     11    C       19.9620   15.1830  -18.7240 C.2     2  LIG2       -0.0847
     12    C       18.5470   14.6520  -16.6830 C.3     2  LIG2       -0.0438
     13    C       18.5440   14.7070  -21.9640 C.3     2  LIG2       -0.0438
     14    C       21.5140   10.7420  -19.9860 C.3     2  LIG2       -0.0438
     15    C       20.0400   11.0240  -22.0130 C.3     2  LIG2       -0.0438
     16    H       18.3430   11.8580  -17.7040 H       2  LIG2        0.0313
     17    H       19.7250   10.8590  -17.8160 H       2  LIG2        0.0313
     18    H       20.4800   12.7640  -16.5810 H       2  LIG2        0.0313
     19    H       21.1940   12.9450  -18.1480 H       2  LIG2        0.0313
     20    H       17.6950   12.0600  -21.3090 H       2  LIG2        0.0352
     21    H       17.0100   11.5470  -19.8140 H       2  LIG2        0.0352
     22    H       17.0520   16.0870  -19.1650 H       2  LIG2        0.0313
     23    H       17.5860   16.8760  -20.6110 H       2  LIG2        0.0313
     24    H       19.8450   16.9760  -19.8450 H       2  LIG2        0.0310
     25    H       19.0130   17.0910  -18.3260 H       2  LIG2        0.0310
     26    H       17.0750   13.7660  -18.9220 H       2  LIG2        0.0575
     27    H       20.7190   14.8590  -19.4240 H       2  LIG2        0.0572
     28    H       17.7820   13.8750  -16.6720 H       2  LIG2        0.0274
     29    H       18.0450   15.6020  -16.8630 H       2  LIG2        0.0274
     30    H       18.9930   14.7040  -15.6890 H       2  LIG2        0.0274
     31    H       17.9030   15.1940  -22.7000 H       2  LIG2        0.0274
     32    H       18.7490   13.7010  -22.3230 H       2  LIG2        0.0274
     33    H       19.4940   15.2400  -21.9300 H       2  LIG2        0.0274
     34    H       21.6770    9.6960  -20.2420 H       2  LIG2        0.0274
     35    H       21.6390   10.8230  -18.9080 H       2  LIG2        0.0274
     36    H       22.3050   11.3340  -20.4440 H       2  LIG2        0.0274
     37    H       20.5730   10.1280  -22.3350 H       2  LIG2        0.0274
     38    H       20.4900   11.8750  -22.5240 H       2  LIG2        0.0274
     39    H       19.0210   10.9080  -22.3770 H       2  LIG2        0.0274
@<TRIPOS>BOND
     1    31    13    1
     2    38    15    1
     3    39    15    1
     4    37    15    1
     5    32    13    1
     6    15     9    1
     7    13    33    1
     8    13     8    1
     9    20     4    1
    10    23     6    1
    11     8    10    2
    12     8     6    1
    13     9    14    1
    14     9     2    2
    15    36    14    1
    16    34    14    1
    17     4    10    1
    18     4    21    1
    19     4     2    1
    20    14    35    1
    21    10    26    1
    22     6     7    1
    23     6    22    1
    24    24     7    1
    25     2     1    1
    26    27    11    1
    27     7    11    1
    28     7    25    1
    29    11     5    2
    30     1    17    1
    31     1    16    1
    32     1     3    1
    33    19     3    1
    34     5     3    1
    35     5    12    1
    36     3    18    1
    37    29    12    1
    38    12    28    1
    39    12    30    1
