@<TRIPOS>MOLECULE
5281519_run_5.pdb
 39 39 0 0 0
SMALL
GASTEIGER

@<TRIPOS>ATOM
      1    C       19.3270   11.8100  -18.1700 C.3     2  LIG2       -0.0275
      2    C       19.1650   11.7040  -19.7020 C.2     2  LIG2       -0.0668
      3    C       20.2370   12.9550  -17.6270 C.3     2  LIG2       -0.0283
      4    C       17.7940   12.1770  -20.2350 C.3     2  LIG2       -0.0130
      5    C       19.6250   14.3490  -17.7170 C.2     2  LIG2       -0.0762
      6    C       17.8550   16.0900  -19.9040 C.3     2  LIG2       -0.0286
      7    C       19.1900   16.4240  -19.1700 C.3     2  LIG2       -0.0308
      8    C       17.8700   14.7270  -20.5990 C.2     2  LIG2       -0.0759
      9    C       20.1530   11.2080  -20.5020 C.2     2  LIG2       -0.0762
     10    C       17.4990   13.6270  -19.9050 C.2     2  LIG2       -0.0810
     11    C       19.9620   15.1830  -18.7240 C.2     2  LIG2       -0.0847
     12    C       18.5470   14.6520  -16.6830 C.3     2  LIG2       -0.0438
     13    C       18.5440   14.7070  -21.9640 C.3     2  LIG2       -0.0438
     14    C       21.5140   10.7420  -19.9860 C.3     2  LIG2       -0.0438
     15    C       20.0400   11.0240  -22.0130 C.3     2  LIG2       -0.0438
     16    H       18.3430   11.8580  -17.7040 H       2  LIG2        0.0313
     17    H       19.7250   10.8590  -17.8160 H       2  LIG2        0.0313
     18    H       20.4800   12.7640  -16.5810 H       2  LIG2        0.0313
     19    H       21.1940   12.9450  -18.1480 H       2  LIG2        0.0313
     20    H       17.6950   12.0600  -21.3090 H       2  LIG2        0.0352
     21    H       17.0100   11.5470  -19.8140 H       2  LIG2        0.0352
     22    H       17.0520   16.0870  -19.1650 H       2  LIG2        0.0313
     23    H       17.5860   16.8760  -20.6110 H       2  LIG2        0.0313
     24    H       19.8450   16.9760  -19.8450 H       2  LIG2        0.0310
     25    H       19.0130   17.0910  -18.3260 H       2  LIG2        0.0310
     26    H       17.0750   13.7660  -18.9220 H       2  LIG2        0.0575
     27    H       20.7190   14.8590  -19.4240 H       2  LIG2        0.0572
     28    H       17.7820   13.8750  -16.6720 H       2  LIG2        0.0274
     29    H       18.0450   15.6020  -16.8630 H       2  LIG2        0.0274
     30    H       18.9930   14.7040  -15.6890 H       2  LIG2        0.0274
     31    H       17.9030   15.1940  -22.7000 H       2  LIG2        0.0274
     32    H       18.7490   13.7010  -22.3230 H       2  LIG2        0.0274
     33    H       19.4940   15.2400  -21.9300 H       2  LIG2        0.0274
     34    H       21.6770    9.6960  -20.2420 H       2  LIG2        0.0274
     35    H       21.6390   10.8230  -18.9080 H       2  LIG2        0.0274
     36    H       22.3050   11.3340  -20.4440 H       2  LIG2        0.0274
     37    H       20.5730   10.1280  -22.3350 H       2  LIG2        0.0274
     38    H       20.4900   11.8750  -22.5240 H       2  LIG2        0.0274
     39    H       19.0210   10.9080  -22.3770 H       2  LIG2        0.0274
@<TRIPOS>BOND
     1    31    13    1
     2    38    15    1
     3    39    15    1
     4    37    15    1
     5    32    13    1
     6    15     9    1
     7    13    33    1
     8    13     8    1
     9    20     4    1
    10    23     6    1
    11     8    10    2
    12     8     6    1
    13     9    14    1
    14     9     2    2
    15    36    14    1
    16    34    14    1
    17     4    10    1
    18     4    21    1
    19     4     2    1
    20    14    35    1
    21    10    26    1
    22     6     7    1
    23     6    22    1
    24    24     7    1
    25     2     1    1
    26    27    11    1
    27     7    11    1
    28     7    25    1
    29    11     5    2
    30     1    17    1
    31     1    16    1
    32     1     3    1
    33    19     3    1
    34     5     3    1
    35     5    12    1
    36     3    18    1
    37    29    12    1
    38    12    28    1
    39    12    30    1
@<TRIPOS>MOLECULE
5281519_run_10.pdb
 39 39 0 0 0
SMALL
GASTEIGER

@<TRIPOS>ATOM
      1    C       18.0640   15.0260  -18.7100 C.3     2  LIG2       -0.0275
      2    C       19.3630   15.8600  -18.7270 C.2     2  LIG2       -0.0668
      3    C       17.7470   14.1720  -19.9750 C.3     2  LIG2       -0.0283
      4    C       20.4980   15.2950  -17.8440 C.3     2  LIG2       -0.0130
      5    C       18.6120   12.9270  -20.1340 C.2     2  LIG2       -0.0762
      6    C       21.7960   12.1140  -19.7460 C.3     2  LIG2       -0.0286
      7    C       20.8350   11.9350  -20.9610 C.3     2  LIG2       -0.0308
      8    C       21.8170   13.5410  -19.1940 C.2     2  LIG2       -0.0759
      9    C       19.4740   17.0120  -19.4500 C.2     2  LIG2       -0.0762
     10    C       20.9200   13.8960  -18.2460 C.2     2  LIG2       -0.0810
     11    C       19.6760   12.9310  -20.9670 C.2     2  LIG2       -0.0847
     12    C       18.2600   11.7690  -19.2080 C.3     2  LIG2       -0.0438
     13    C       22.7100   14.5130  -19.9530 C.3     2  LIG2       -0.0438
     14    C       18.3600   17.5760  -20.3300 C.3     2  LIG2       -0.0438
     15    C       20.7070   17.9120  -19.4690 C.3     2  LIG2       -0.0438
     16    H       18.0480   14.3980  -17.8180 H       2  LIG2        0.0313
     17    H       17.2350   15.7140  -18.5440 H       2  LIG2        0.0313
     18    H       16.7040   13.8520  -19.9500 H       2  LIG2        0.0313
     19    H       17.8340   14.7900  -20.8690 H       2  LIG2        0.0313
     20    H       21.3870   15.9170  -17.8490 H       2  LIG2        0.0352
     21    H       20.1710   15.2850  -16.8040 H       2  LIG2        0.0352
     22    H       21.4650   11.4450  -18.9500 H       2  LIG2        0.0313
     23    H       22.8070   11.7850  -19.9910 H       2  LIG2        0.0313
     24    H       21.3900   12.0940  -21.8870 H       2  LIG2        0.0310
     25    H       20.4640   10.9120  -21.0170 H       2  LIG2        0.0310
     26    H       20.3060   13.1210  -17.8130 H       2  LIG2        0.0575
     27    H       19.8570   13.8160  -21.5600 H       2  LIG2        0.0572
     28    H       18.2100   12.0960  -18.1700 H       2  LIG2        0.0274
     29    H       18.9790   10.9530  -19.2590 H       2  LIG2        0.0274
     30    H       17.2870   11.3600  -19.4830 H       2  LIG2        0.0274
     31    H       23.7570   14.3000  -19.7360 H       2  LIG2        0.0274
     32    H       22.5260   15.5530  -19.6920 H       2  LIG2        0.0274
     33    H       22.5560   14.4150  -21.0280 H       2  LIG2        0.0274
     34    H       18.0880   18.5790  -19.9990 H       2  LIG2        0.0274
     35    H       17.4440   16.9890  -20.3290 H       2  LIG2        0.0274
     36    H       18.6990   17.6370  -21.3630 H       2  LIG2        0.0274
     37    H       20.4180   18.9620  -19.5400 H       2  LIG2        0.0274
     38    H       21.3190   17.6810  -20.3400 H       2  LIG2        0.0274
     39    H       21.3320   17.8370  -18.5820 H       2  LIG2        0.0274
@<TRIPOS>BOND
     1    24     7    1
     2    27    11    1
     3    36    14    1
     4    33    13    1
     5    25     7    1
     6    11     7    1
     7    11     5    2
     8     7     6    1
     9    19     3    1
    10    38    15    1
    11    14    35    1
    12    14    34    1
    13    14     9    1
    14     5     3    1
    15     5    12    1
    16    23     6    1
    17     3    18    1
    18     3     1    1
    19    13    31    1
    20    13    32    1
    21    13     8    1
    22     6     8    1
    23     6    22    1
    24    37    15    1
    25    30    12    1
    26    15     9    1
    27    15    39    1
    28     9     2    2
    29    29    12    1
    30    12    28    1
    31     8    10    2
    32     2     1    1
    33     2     4    1
    34     1    17    1
    35     1    16    1
    36    10     4    1
    37    10    26    1
    38    20     4    1
    39     4    21    1
@<TRIPOS>MOLECULE
5281519_run_8.pdb
 39 39 0 0 0
SMALL
GASTEIGER

@<TRIPOS>ATOM
      1    C       21.9980   14.4910  -18.2420 C.3     2  LIG2       -0.0275
      2    C       22.3440   13.8410  -19.6000 C.2     2  LIG2       -0.0668
      3    C       20.7510   15.4270  -18.1960 C.3     2  LIG2       -0.0283
      4    C       22.0080   12.3360  -19.6920 C.3     2  LIG2       -0.0130
      5    C       19.4120   14.7020  -18.2550 C.2     2  LIG2       -0.0762
      6    C       18.0920   12.1640  -19.9180 C.3     2  LIG2       -0.0286
      7    C       17.6010   13.6330  -19.7330 C.3     2  LIG2       -0.0308
      8    C       19.5440   12.0660  -20.3920 C.2     2  LIG2       -0.0759
      9    C       22.9200   14.5470  -20.6150 C.2     2  LIG2       -0.0762
     10    C       20.5370   12.0420  -19.4750 C.2     2  LIG2       -0.0810
     11    C       18.7290   14.6130  -19.4180 C.2     2  LIG2       -0.0847
     12    C       18.9930   14.0050  -16.9660 C.3     2  LIG2       -0.0438
     13    C       19.7480   12.2490  -21.8900 C.3     2  LIG2       -0.0438
     14    C       23.2500   16.0370  -20.5360 C.3     2  LIG2       -0.0438
     15    C       23.3370   13.9560  -21.9600 C.3     2  LIG2       -0.0438
     16    H       21.9160   13.7160  -17.4790 H       2  LIG2        0.0313
     17    H       22.8690   15.0640  -17.9230 H       2  LIG2        0.0313
     18    H       20.7710   16.0180  -17.2800 H       2  LIG2        0.0313
     19    H       20.8060   16.1550  -19.0060 H       2  LIG2        0.0313
     20    H       22.2920   11.8970  -20.6430 H       2  LIG2        0.0352
     21    H       22.5950   11.7920  -18.9500 H       2  LIG2        0.0352
     22    H       18.0110   11.6550  -18.9570 H       2  LIG2        0.0313
     23    H       17.4340   11.6100  -20.5890 H       2  LIG2        0.0313
     24    H       17.1350   13.9770  -20.6570 H       2  LIG2        0.0310
     25    H       16.8190   13.6890  -18.9750 H       2  LIG2        0.0310
     26    H       20.2650   11.9580  -18.4330 H       2  LIG2        0.0575
     27    H       19.1280   15.1210  -20.2850 H       2  LIG2        0.0572
     28    H       19.7870   13.3570  -16.5940 H       2  LIG2        0.0274
     29    H       18.1020   13.3920  -17.0880 H       2  LIG2        0.0274
     30    H       18.7730   14.7480  -16.1990 H       2  LIG2        0.0274
     31    H       19.4020   11.3620  -22.4210 H       2  LIG2        0.0274
     32    H       20.7880   12.4100  -22.1610 H       2  LIG2        0.0274
     33    H       19.1800   13.1070  -22.2510 H       2  LIG2        0.0274
     34    H       24.3170   16.1960  -20.6930 H       2  LIG2        0.0274
     35    H       23.0020   16.5040  -19.5860 H       2  LIG2        0.0274
     36    H       22.7070   16.5780  -21.3100 H       2  LIG2        0.0274
     37    H       24.2510   14.4280  -22.3230 H       2  LIG2        0.0274
     38    H       22.5580   14.1380  -22.7000 H       2  LIG2        0.0274
     39    H       23.5440   12.8890  -21.9360 H       2  LIG2        0.0274
@<TRIPOS>BOND
     1    38    15    1
     2    31    13    1
     3    37    15    1
     4    33    13    1
     5    32    13    1
     6    15    39    1
     7    15     9    1
     8    13     8    1
     9    36    14    1
    10    34    14    1
    11    24     7    1
    12    20     4    1
    13     9    14    1
    14     9     2    2
    15    23     6    1
    16    14    35    1
    17     8     6    1
    18     8    10    2
    19    27    11    1
    20     6     7    1
    21     6    22    1
    22     7    11    1
    23     7    25    1
    24     4     2    1
    25     4    10    1
    26     4    21    1
    27     2     1    1
    28    10    26    1
    29    11     5    2
    30    19     3    1
    31     5     3    1
    32     5    12    1
    33     1     3    1
    34     1    17    1
    35     1    16    1
    36     3    18    1
    37    29    12    1
    38    12    28    1
    39    12    30    1
@<TRIPOS>MOLECULE
5281519_run_6.pdb
 39 39 0 0 0
SMALL
GASTEIGER

@<TRIPOS>ATOM
      1    C       20.4450   14.0320  -17.6890 C.3     2  LIG2       -0.0275
      2    C       19.1710   13.8440  -18.5420 C.2     2  LIG2       -0.0668
      3    C       21.8010   14.1530  -18.4500 C.3     2  LIG2       -0.0283
      4    C       18.2730   15.0970  -18.6360 C.3     2  LIG2       -0.0130
      5    C       22.0120   15.4830  -19.1640 C.2     2  LIG2       -0.0762
      6    C       20.2100   17.5770  -20.9850 C.3     2  LIG2       -0.0286
      7    C       21.5830   16.8930  -21.2700 C.3     2  LIG2       -0.0308
      8    C       19.1200   16.5930  -20.5550 C.2     2  LIG2       -0.0759
      9    C       18.8680   12.6530  -19.1350 C.2     2  LIG2       -0.0762
     10    C       18.9840   16.2900  -19.2450 C.2     2  LIG2       -0.0810
     11    C       21.7840   15.5950  -20.4910 C.2     2  LIG2       -0.0847
     12    C       22.3630   16.6580  -18.2590 C.3     2  LIG2       -0.0438
     13    C       18.4340   15.8520  -21.6950 C.3     2  LIG2       -0.0438
     14    C       19.7510   11.4100  -19.0520 C.3     2  LIG2       -0.0438
     15    C       17.6010   12.3820  -19.9440 C.3     2  LIG2       -0.0438
     16    H       20.3110   14.8840  -17.0210 H       2  LIG2        0.0313
     17    H       20.5100   13.1860  -17.0050 H       2  LIG2        0.0313
     18    H       22.6270   14.0150  -17.7510 H       2  LIG2        0.0313
     19    H       21.8960   13.3370  -19.1670 H       2  LIG2        0.0313
     20    H       17.3700   14.9270  -19.2120 H       2  LIG2        0.0352
     21    H       17.9210   15.3610  -17.6390 H       2  LIG2        0.0352
     22    H       20.3520   18.3020  -20.1820 H       2  LIG2        0.0313
     23    H       19.8770   18.1650  -21.8420 H       2  LIG2        0.0313
     24    H       21.6460   16.6380  -22.3290 H       2  LIG2        0.0310
     25    H       22.4070   17.5830  -21.0880 H       2  LIG2        0.0310
     26    H       19.5620   16.8560  -18.5290 H       2  LIG2        0.0575
     27    H       21.5100   14.7040  -21.0390 H       2  LIG2        0.0572
     28    H       21.6520   16.7480  -17.4380 H       2  LIG2        0.0274
     29    H       22.3750   17.6100  -18.7870 H       2  LIG2        0.0274
     30    H       23.3570   16.5110  -17.8330 H       2  LIG2        0.0274
     31    H       17.7640   16.5280  -22.2250 H       2  LIG2        0.0274
     32    H       17.8450   15.0030  -21.3570 H       2  LIG2        0.0274
     33    H       19.1720   15.4740  -22.4040 H       2  LIG2        0.0274
     34    H       19.1990   10.5830  -18.6040 H       2  LIG2        0.0274
     35    H       20.6550   11.5380  -18.4600 H       2  LIG2        0.0274
     36    H       20.0640   11.1100  -20.0520 H       2  LIG2        0.0274
     37    H       17.2530   11.3600  -19.7860 H       2  LIG2        0.0274
     38    H       17.8100   12.4960  -21.0070 H       2  LIG2        0.0274
     39    H       16.7600   13.0230  -19.6900 H       2  LIG2        0.0274
@<TRIPOS>BOND
     1    33    13    1
     2    24     7    1
     3    31    13    1
     4    23     6    1
     5    13    32    1
     6    13     8    1
     7     7    25    1
     8     7     6    1
     9     7    11    1
    10    27    11    1
    11    38    15    1
    12     6     8    1
    13     6    22    1
    14     8    10    2
    15    11     5    2
    16    36    14    1
    17    15    37    1
    18    15    39    1
    19    15     9    1
    20    10     4    1
    21    10    26    1
    22    20     4    1
    23    19     3    1
    24     5     3    1
    25     5    12    1
    26     9    14    1
    27     9     2    2
    28    14    34    1
    29    14    35    1
    30    29    12    1
    31     4     2    1
    32     4    21    1
    33     2     1    1
    34     3    18    1
    35     3     1    1
    36    12    30    1
    37    12    28    1
    38     1    16    1
    39     1    17    1
@<TRIPOS>MOLECULE
5281519_run_24.pdb
 39 39 0 0 0
SMALL
GASTEIGER

@<TRIPOS>ATOM
      1    C       19.5030   11.7770  -21.1580 C.3     2  LIG2       -0.0275
      2    C       21.0190   12.0670  -21.1300 C.2     2  LIG2       -0.0668
      3    C       18.7920   11.5590  -19.7870 C.3     2  LIG2       -0.0283
      4    C       21.3950   13.5360  -21.4260 C.3     2  LIG2       -0.0130
      5    C       18.5930   12.8290  -18.9660 C.2     2  LIG2       -0.0762
      6    C       20.3370   15.5390  -18.2190 C.3     2  LIG2       -0.0286
      7    C       19.6100   14.5050  -17.3050 C.3     2  LIG2       -0.0308
      8    C       21.2760   14.8910  -19.2380 C.2     2  LIG2       -0.0759
      9    C       21.9380   11.0890  -20.8840 C.2     2  LIG2       -0.0762
     10    C       20.7870   14.5140  -20.4410 C.2     2  LIG2       -0.0810
     11    C       19.4380   13.1360  -17.9590 C.2     2  LIG2       -0.0847
     12    C       17.4760   13.7460  -19.4510 C.3     2  LIG2       -0.0438
     13    C       22.6480   14.5090  -18.7000 C.3     2  LIG2       -0.0438
     14    C       21.5760    9.6350  -20.5850 C.3     2  LIG2       -0.0438
     15    C       23.4520   11.2940  -20.8960 C.3     2  LIG2       -0.0438
     16    H       18.9950   12.5580  -21.7250 H       2  LIG2        0.0313
     17    H       19.3510   10.8870  -21.7680 H       2  LIG2        0.0313
     18    H       17.8120   11.1100  -19.9500 H       2  LIG2        0.0313
     19    H       19.3450   10.8290  -19.1960 H       2  LIG2        0.0313
     20    H       22.4670   13.7040  -21.4330 H       2  LIG2        0.0352
     21    H       21.0680   13.7930  -22.4340 H       2  LIG2        0.0352
     22    H       19.5790   16.1030  -18.7640 H       2  LIG2        0.0313
     23    H       20.8720   16.2820  -17.6260 H       2  LIG2        0.0313
     24    H       20.1960   14.3500  -16.3980 H       2  LIG2        0.0310
     25    H       18.6490   14.8940  -16.9660 H       2  LIG2        0.0310
     26    H       19.7780   14.8050  -20.6930 H       2  LIG2        0.0575
     27    H       20.2180   12.4280  -17.7130 H       2  LIG2        0.0572
     28    H       17.5800   13.9640  -20.5140 H       2  LIG2        0.0274
     29    H       17.4530   14.6980  -18.9230 H       2  LIG2        0.0274
     30    H       16.5100   13.2650  -19.2950 H       2  LIG2        0.0274
     31    H       23.2510   15.4050  -18.5540 H       2  LIG2        0.0274
     32    H       23.1980   13.8480  -19.3650 H       2  LIG2        0.0274
     33    H       22.5540   13.9990  -17.7400 H       2  LIG2        0.0274
     34    H       22.0320    8.9730  -21.3210 H       2  LIG2        0.0274
     35    H       20.5090    9.4250  -20.5950 H       2  LIG2        0.0274
     36    H       21.9480    9.3570  -19.5990 H       2  LIG2        0.0274
     37    H       23.9580   10.4140  -21.2950 H       2  LIG2        0.0274
     38    H       23.8110   11.4460  -19.8780 H       2  LIG2        0.0274
     39    H       23.7870   12.1300  -21.5050 H       2  LIG2        0.0274
@<TRIPOS>BOND
     1    21     4    1
     2    17     1    1
     3    16     1    1
     4    39    15    1
     5    20     4    1
     6     4     2    1
     7     4    10    1
     8    34    14    1
     9    37    15    1
    10     1     2    1
    11     1     3    1
    12     2     9    2
    13    15     9    1
    14    15    38    1
    15     9    14    1
    16    26    10    1
    17    35    14    1
    18    14    36    1
    19    28    12    1
    20    10     8    2
    21    18     3    1
    22     3    19    1
    23     3     5    1
    24    12    30    1
    25    12     5    1
    26    12    29    1
    27    32    13    1
    28     8    13    1
    29     8     6    1
    30     5    11    2
    31    22     6    1
    32    13    31    1
    33    13    33    1
    34     6    23    1
    35     6     7    1
    36    11    27    1
    37    11     7    1
    38     7    25    1
    39     7    24    1
@<TRIPOS>MOLECULE
5281519_run_14.pdb
 39 39 0 0 0
SMALL
GASTEIGER

@<TRIPOS>ATOM
      1    C       21.9400   13.7140  -18.6410 C.3     2  LIG2       -0.0275
      2    C       20.7540   12.7390  -18.8100 C.2     2  LIG2       -0.0668
      3    C       22.2140   14.7130  -19.8060 C.3     2  LIG2       -0.0283
      4    C       19.5160   13.0830  -17.9540 C.3     2  LIG2       -0.0130
      5    C       21.2120   15.8570  -19.9100 C.2     2  LIG2       -0.0762
      6    C       17.9370   16.2520  -19.6510 C.3     2  LIG2       -0.0286
      7    C       18.9300   16.6540  -20.7850 C.3     2  LIG2       -0.0308
      8    C       18.0630   14.7870  -19.2260 C.2     2  LIG2       -0.0759
      9    C       20.8220   11.6540  -19.6340 C.2     2  LIG2       -0.0762
     10    C       18.9470   14.4540  -18.2590 C.2     2  LIG2       -0.0810
     11    C       20.2000   15.8060  -20.8040 C.2     2  LIG2       -0.0847
     12    C       21.3730   16.9580  -18.8690 C.3     2  LIG2       -0.0438
     13    C       17.3350   13.7920  -20.1190 C.3     2  LIG2       -0.0438
     14    C       22.0410   11.3080  -20.4890 C.3     2  LIG2       -0.0438
     15    C       19.7110   10.6210  -19.8070 C.3     2  LIG2       -0.0438
     16    H       21.8330   14.2540  -17.6990 H       2  LIG2        0.0313
     17    H       22.8370   13.1150  -18.4840 H       2  LIG2        0.0313
     18    H       23.2070   15.1490  -19.6890 H       2  LIG2        0.0313
     19    H       22.2490   14.1740  -20.7540 H       2  LIG2        0.0313
     20    H       18.7110   12.3630  -18.0660 H       2  LIG2        0.0352
     21    H       19.7850   13.0340  -16.8980 H       2  LIG2        0.0352
     22    H       18.1420   16.8790  -18.7820 H       2  LIG2        0.0313
     23    H       16.9070   16.4810  -19.9290 H       2  LIG2        0.0313
     24    H       18.4460   16.5180  -21.7530 H       2  LIG2        0.0310
     25    H       19.1760   17.7150  -20.7290 H       2  LIG2        0.0310
     26    H       19.4390   15.2520  -17.7230 H       2  LIG2        0.0575
     27    H       20.1590   14.9650  -21.4820 H       2  LIG2        0.0572
     28    H       21.4100   16.5440  -17.8610 H       2  LIG2        0.0274
     29    H       20.5620   17.6850  -18.8930 H       2  LIG2        0.0274
     30    H       22.3010   17.5010  -19.0470 H       2  LIG2        0.0274
     31    H       16.2600   13.8600  -19.9500 H       2  LIG2        0.0274
     32    H       17.6310   12.7610  -19.9390 H       2  LIG2        0.0274
     33    H       17.5310   14.0070  -21.1700 H       2  LIG2        0.0274
     34    H       22.4150   10.3180  -20.2300 H       2  LIG2        0.0274
     35    H       22.8760   11.9950  -20.3820 H       2  LIG2        0.0274
     36    H       21.7640   11.3040  -21.5430 H       2  LIG2        0.0274
     37    H       20.1290    9.6230  -19.9500 H       2  LIG2        0.0274
     38    H       19.1200   10.8580  -20.6910 H       2  LIG2        0.0274
     39    H       19.0370   10.5400  -18.9570 H       2  LIG2        0.0274
@<TRIPOS>BOND
     1    24     7    1
     2    36    14    1
     3    27    11    1
     4    33    13    1
     5    11     7    1
     6    11     5    2
     7     7    25    1
     8     7     6    1
     9    19     3    1
    10    38    15    1
    11    14    35    1
    12    14    34    1
    13    14     9    1
    14    13    31    1
    15    13    32    1
    16    13     8    1
    17    37    15    1
    18    23     6    1
    19     5     3    1
    20     5    12    1
    21    15     9    1
    22    15    39    1
    23     3    18    1
    24     3     1    1
    25     6     8    1
    26     6    22    1
    27     9     2    2
    28     8    10    2
    29    30    12    1
    30    29    12    1
    31    12    28    1
    32     2     1    1
    33     2     4    1
    34     1    17    1
    35     1    16    1
    36    10     4    1
    37    10    26    1
    38    20     4    1
    39     4    21    1
@<TRIPOS>MOLECULE
5281519_run_18.pdb
 39 39 0 0 0
SMALL
GASTEIGER

@<TRIPOS>ATOM
      1    C       22.3570   14.0710  -20.6650 C.3     2  LIG2       -0.0275
      2    C       21.5940   15.3250  -20.1860 C.2     2  LIG2       -0.0668
      3    C       22.3380   12.8230  -19.7310 C.3     2  LIG2       -0.0283
      4    C       20.2640   15.5870  -20.9270 C.3     2  LIG2       -0.0130
      5    C       21.0100   12.0740  -19.7000 C.2     2  LIG2       -0.0762
      6    C       17.7910   12.8340  -19.6130 C.3     2  LIG2       -0.0286
      7    C       18.6490   11.9080  -18.6980 C.3     2  LIG2       -0.0308
      8    C       18.3900   14.2310  -19.7940 C.2     2  LIG2       -0.0759
      9    C       22.0810   16.1360  -19.2030 C.2     2  LIG2       -0.0762
     10    C       19.2760   14.4460  -20.7920 C.2     2  LIG2       -0.0810
     11    C       20.1330   12.2710  -18.6920 C.2     2  LIG2       -0.0847
     12    C       20.7200   11.2170  -20.9270 C.3     2  LIG2       -0.0438
     13    C       18.1040   15.2060  -18.6600 C.3     2  LIG2       -0.0438
     14    C       23.3910   15.8830  -18.4600 C.3     2  LIG2       -0.0438
     15    C       21.4070   17.4190  -18.7190 C.3     2  LIG2       -0.0438
     16    H       22.0160   13.7990  -21.6650 H       2  LIG2        0.0313
     17    H       23.3950   14.3620  -20.8280 H       2  LIG2        0.0313
     18    H       23.1110   12.1200  -20.0430 H       2  LIG2        0.0313
     19    H       22.6120   13.1160  -18.7170 H       2  LIG2        0.0313
     20    H       19.7660   16.4920  -20.5940 H       2  LIG2        0.0352
     21    H       20.4720   15.7590  -21.9840 H       2  LIG2        0.0352
     22    H       17.7160   12.3660  -20.5960 H       2  LIG2        0.0313
     23    H       16.7640   12.9030  -19.2530 H       2  LIG2        0.0313
     24    H       18.3000   11.9950  -17.6680 H       2  LIG2        0.0310
     25    H       18.5100   10.8600  -18.9640 H       2  LIG2        0.0310
     26    H       19.4300   13.6570  -21.5130 H       2  LIG2        0.0575
     27    H       20.4250   12.9230  -17.8810 H       2  LIG2        0.0572
     28    H       20.8380   11.7920  -21.8450 H       2  LIG2        0.0274
     29    H       19.7110   10.8070  -20.9260 H       2  LIG2        0.0274
     30    H       21.4120   10.3760  -20.9610 H       2  LIG2        0.0274
     31    H       17.0640   15.5300  -18.7030 H       2  LIG2        0.0274
     32    H       18.7270   16.0970  -18.6970 H       2  LIG2        0.0274
     33    H       18.2750   14.7300  -17.6940 H       2  LIG2        0.0274
     34    H       24.0690   16.7270  -18.5900 H       2  LIG2        0.0274
     35    H       23.9310   14.9970  -18.7860 H       2  LIG2        0.0274
     36    H       23.1960   15.7640  -17.3950 H       2  LIG2        0.0274
     37    H       22.1510   18.1730  -18.4610 H       2  LIG2        0.0274
     38    H       20.8230   17.2130  -17.8220 H       2  LIG2        0.0274
     39    H       20.7530   17.8870  -19.4510 H       2  LIG2        0.0274
@<TRIPOS>BOND
     1    21     4    1
     2    28    12    1
     3    16     1    1
     4    26    10    1
     5    30    12    1
     6     4    10    1
     7     4    20    1
     8     4     2    1
     9    12    29    1
    10    12     5    1
    11    17     1    1
    12    10     8    2
    13     1     2    1
    14     1     3    1
    15    22     6    1
    16     2     9    2
    17    18     3    1
    18     8     6    1
    19     8    13    1
    20     3     5    1
    21     3    19    1
    22     5    11    2
    23     6    23    1
    24     6     7    1
    25    39    15    1
    26     9    15    1
    27     9    14    1
    28    25     7    1
    29    35    14    1
    30    15    37    1
    31    15    38    1
    32    31    13    1
    33     7    11    1
    34     7    24    1
    35    32    13    1
    36    11    27    1
    37    13    33    1
    38    34    14    1
    39    14    36    1
@<TRIPOS>MOLECULE
5281519_run_11.pdb
 39 39 0 0 0
SMALL
GASTEIGER

@<TRIPOS>ATOM
      1    C       17.7060   14.0530  -19.3600 C.3     2  LIG2       -0.0275
      2    C       18.8250   13.0580  -19.7400 C.2     2  LIG2       -0.0668
      3    C       18.1350   15.3680  -18.6390 C.3     2  LIG2       -0.0283
      4    C       19.1600   13.0190  -21.2470 C.3     2  LIG2       -0.0130
      5    C       18.8190   16.3910  -19.5390 C.2     2  LIG2       -0.0762
      6    C       21.0670   16.3750  -21.9670 C.3     2  LIG2       -0.0286
      7    C       21.0060   17.1820  -20.6340 C.3     2  LIG2       -0.0308
      8    C       20.8730   14.8700  -21.7740 C.2     2  LIG2       -0.0759
      9    C       19.4380   12.2700  -18.8100 C.2     2  LIG2       -0.0762
     10    C       19.6220   14.3580  -21.7870 C.2     2  LIG2       -0.0810
     11    C       20.1650   16.5030  -19.5540 C.2     2  LIG2       -0.0847
     12    C       17.8910   17.1540  -20.4770 C.3     2  LIG2       -0.0438
     13    C       22.1190   14.1090  -21.3400 C.3     2  LIG2       -0.0438
     14    C       19.1170   12.3050  -17.3170 C.3     2  LIG2       -0.0438
     15    C       20.5100   11.2290  -19.1240 C.3     2  LIG2       -0.0438
     16    H       17.1110   14.2850  -20.2440 H       2  LIG2        0.0313
     17    H       17.0020   13.5250  -18.7170 H       2  LIG2        0.0313
     18    H       17.2600   15.8450  -18.1960 H       2  LIG2        0.0313
     19    H       18.7870   15.1320  -17.7980 H       2  LIG2        0.0313
     20    H       19.9250   12.2880  -21.4910 H       2  LIG2        0.0352
     21    H       18.2800   12.6930  -21.8020 H       2  LIG2        0.0352
     22    H       20.2740   16.7410  -22.6210 H       2  LIG2        0.0313
     23    H       21.9940   16.5750  -22.5070 H       2  LIG2        0.0313
     24    H       22.0140   17.2850  -20.2280 H       2  LIG2        0.0310
     25    H       20.6580   18.2000  -20.8100 H       2  LIG2        0.0310
     26    H       18.8080   15.0110  -22.0670 H       2  LIG2        0.0575
     27    H       20.7360   15.8930  -18.8680 H       2  LIG2        0.0572
     28    H       17.2600   16.4720  -21.0470 H       2  LIG2        0.0274
     29    H       18.4290   17.7750  -21.1910 H       2  LIG2        0.0274
     30    H       17.2420   17.8130  -19.8990 H       2  LIG2        0.0274
     31    H       22.8090   14.0210  -22.1800 H       2  LIG2        0.0274
     32    H       21.9030   13.1040  -20.9860 H       2  LIG2        0.0274
     33    H       22.6260   14.6370  -20.5320 H       2  LIG2        0.0274
     34    H       18.7860   11.3240  -16.9780 H       2  LIG2        0.0274
     35    H       18.3360   13.0100  -17.0410 H       2  LIG2        0.0274
     36    H       20.0080   12.5790  -16.7540 H       2  LIG2        0.0274
     37    H       20.4080   10.3600  -18.4710 H       2  LIG2        0.0274
     38    H       21.4990   11.6530  -18.9520 H       2  LIG2        0.0274
     39    H       20.4760   10.8410  -20.1390 H       2  LIG2        0.0274
@<TRIPOS>BOND
     1    22     6    1
     2    23     6    1
     3    31    13    1
     4    26    10    1
     5     6     8    1
     6     6     7    1
     7    21     4    1
     8    10     8    2
     9    10     4    1
    10     8    13    1
    11    20     4    1
    12    13    32    1
    13    13    33    1
    14     4     2    1
    15    29    12    1
    16    28    12    1
    17    25     7    1
    18     7    24    1
    19     7    11    1
    20    12    30    1
    21    12     5    1
    22    16     1    1
    23    39    15    1
    24     2     1    1
    25     2     9    2
    26    11     5    2
    27    11    27    1
    28     5     3    1
    29     1    17    1
    30     1     3    1
    31    15    38    1
    32    15     9    1
    33    15    37    1
    34     9    14    1
    35     3    18    1
    36     3    19    1
    37    14    35    1
    38    14    34    1
    39    14    36    1
@<TRIPOS>MOLECULE
5281519_run_5.pdb
 39 39 0 0 0
SMALL
GASTEIGER

@<TRIPOS>ATOM
      1    C       20.4310   15.2280  -17.9160 C.3     2  LIG2       -0.0275
      2    C       21.3070   15.3120  -19.1850 C.2     2  LIG2       -0.0668
      3    C       18.9280   14.8570  -18.1100 C.3     2  LIG2       -0.0283
      4    C       22.2840   14.1300  -19.3670 C.3     2  LIG2       -0.0130
      5    C       18.6750   13.3930  -18.4520 C.2     2  LIG2       -0.0762
      6    C       20.0330   11.0790  -20.3890 C.3     2  LIG2       -0.0286
      7    C       18.5640   11.5940  -20.2840 C.3     2  LIG2       -0.0308
      8    C       21.0580   12.2030  -20.5580 C.2     2  LIG2       -0.0759
      9    C       21.2280   16.3640  -20.0510 C.2     2  LIG2       -0.0762
     10    C       21.5820   12.7900  -19.4590 C.2     2  LIG2       -0.0810
     11    C       18.4590   13.0130  -19.7300 C.2     2  LIG2       -0.0847
     12    C       18.8130   12.4210  -17.2860 C.3     2  LIG2       -0.0438
     13    C       21.2140   12.7250  -21.9800 C.3     2  LIG2       -0.0438
     14    C       20.2610   17.5350  -19.8820 C.3     2  LIG2       -0.0438
     15    C       22.1000   16.5380  -21.2920 C.3     2  LIG2       -0.0438
     16    H       20.8960   14.5520  -17.1980 H       2  LIG2        0.0313
     17    H       20.4830   16.1960  -17.4170 H       2  LIG2        0.0313
     18    H       18.3740   15.0880  -17.1990 H       2  LIG2        0.0313
     19    H       18.4880   15.4910  -18.8800 H       2  LIG2        0.0313
     20    H       22.9110   14.2310  -20.2470 H       2  LIG2        0.0352
     21    H       22.9840   14.1120  -18.5310 H       2  LIG2        0.0352
     22    H       20.2690   10.5370  -19.4720 H       2  LIG2        0.0313
     23    H       20.1370   10.3440  -21.1880 H       2  LIG2        0.0313
     24    H       18.1160   11.6100  -21.2780 H       2  LIG2        0.0310
     25    H       17.9520   10.9060  -19.7000 H       2  LIG2        0.0310
     26    H       21.3610   12.3550  -18.4960 H       2  LIG2        0.0575
     27    H       18.4090   13.7810  -20.4900 H       2  LIG2        0.0572
     28    H       19.7630   12.5570  -16.7700 H       2  LIG2        0.0274
     29    H       18.7560   11.3790  -17.5960 H       2  LIG2        0.0274
     30    H       18.0090   12.5900  -16.5680 H       2  LIG2        0.0274
     31    H       21.7540   11.9960  -22.5850 H       2  LIG2        0.0274
     32    H       21.7600   13.6640  -22.0320 H       2  LIG2        0.0274
     33    H       20.2370   12.8910  -22.4360 H       2  LIG2        0.0274
     34    H       20.8120   18.4740  -19.8170 H       2  LIG2        0.0274
     35    H       19.6340   17.4790  -18.9950 H       2  LIG2        0.0274
     36    H       19.5940   17.5910  -20.7420 H       2  LIG2        0.0274
     37    H       22.3370   17.5910  -21.4540 H       2  LIG2        0.0274
     38    H       21.5650   16.1830  -22.1720 H       2  LIG2        0.0274
     39    H       23.0570   16.0240  -21.2430 H       2  LIG2        0.0274
@<TRIPOS>BOND
     1    31    13    1
     2    33    13    1
     3    38    15    1
     4    32    13    1
     5    13     8    1
     6    37    15    1
     7    15    39    1
     8    15     9    1
     9    24     7    1
    10    23     6    1
    11    36    14    1
    12     8     6    1
    13     8    10    2
    14    27    11    1
    15     6     7    1
    16     6    22    1
    17     7    11    1
    18     7    25    1
    19    20     4    1
    20     9    14    1
    21     9     2    2
    22    14    34    1
    23    14    35    1
    24    11     5    2
    25    10     4    1
    26    10    26    1
    27     4     2    1
    28     4    21    1
    29     2     1    1
    30    19     3    1
    31     5     3    1
    32     5    12    1
    33     3     1    1
    34     3    18    1
    35     1    17    1
    36     1    16    1
    37    29    12    1
    38    12    28    1
    39    12    30    1
@<TRIPOS>MOLECULE
5281519_run_22.pdb
 39 39 0 0 0
SMALL
GASTEIGER

@<TRIPOS>ATOM
      1    C       21.2520   12.4790  -20.8990 C.3     2  LIG2       -0.0275
      2    C       21.2770   13.9400  -21.4000 C.2     2  LIG2       -0.0668
      3    C       21.3740   12.2500  -19.3610 C.3     2  LIG2       -0.0283
      4    C       19.9060   14.4830  -21.8560 C.3     2  LIG2       -0.0130
      5    C       20.1230   12.6060  -18.5650 C.2     2  LIG2       -0.0762
      6    C       17.8550   15.0150  -18.5500 C.3     2  LIG2       -0.0286
      7    C       18.7540   14.4480  -17.4080 C.3     2  LIG2       -0.0308
      8    C       18.6410   15.3970  -19.8060 C.2     2  LIG2       -0.0759
      9    C       22.4310   14.6670  -21.4500 C.2     2  LIG2       -0.0762
     10    C       18.8630   14.4610  -20.7560 C.2     2  LIG2       -0.0810
     11    C       20.0340   13.7880  -17.9180 C.2     2  LIG2       -0.0847
     12    C       18.9800   11.6040  -18.6690 C.3     2  LIG2       -0.0438
     13    C       19.3140   16.7610  -19.7560 C.3     2  LIG2       -0.0438
     14    C       23.7910   14.1400  -20.9970 C.3     2  LIG2       -0.0438
     15    C       22.5380   16.0930  -21.9850 C.3     2  LIG2       -0.0438
     16    H       20.3630   11.9790  -21.2840 H       2  LIG2        0.0313
     17    H       22.0680   11.9500  -21.3900 H       2  LIG2        0.0313
     18    H       21.6080   11.2030  -19.1640 H       2  LIG2        0.0313
     19    H       22.2240   12.8100  -18.9700 H       2  LIG2        0.0313
     20    H       19.9580   15.4990  -22.2350 H       2  LIG2        0.0352
     21    H       19.5490   13.8920  -22.7000 H       2  LIG2        0.0352
     22    H       17.1280   14.2490  -18.8220 H       2  LIG2        0.0313
     23    H       17.2600   15.8600  -18.2010 H       2  LIG2        0.0313
     24    H       19.0610   15.2640  -16.7520 H       2  LIG2        0.0310
     25    H       18.1920   13.7610  -16.7750 H       2  LIG2        0.0310
     26    H       18.3640   13.5080  -20.6580 H       2  LIG2        0.0575
     27    H       20.8940   14.4430  -17.9290 H       2  LIG2        0.0572
     28    H       18.7460   11.3810  -19.7110 H       2  LIG2        0.0274
     29    H       18.0640   11.9570  -18.1980 H       2  LIG2        0.0274
     30    H       19.2600   10.6720  -18.1770 H       2  LIG2        0.0274
     31    H       18.5660   17.5480  -19.8550 H       2  LIG2        0.0274
     32    H       20.0470   16.9040  -20.5470 H       2  LIG2        0.0274
     33    H       19.8310   16.8980  -18.8050 H       2  LIG2        0.0274
     34    H       24.5030   14.1720  -21.8210 H       2  LIG2        0.0274
     35    H       23.7790   13.1150  -20.6340 H       2  LIG2        0.0274
     36    H       24.1770   14.7600  -20.1880 H       2  LIG2        0.0274
     37    H       23.4860   16.2420  -22.5030 H       2  LIG2        0.0274
     38    H       22.5010   16.8010  -21.1570 H       2  LIG2        0.0274
     39    H       21.7640   16.3640  -22.7000 H       2  LIG2        0.0274
@<TRIPOS>BOND
     1    39    15    1
     2    21     4    1
     3    37    15    1
     4    20     4    1
     5    15     9    1
     6    15    38    1
     7     4     2    1
     8     4    10    1
     9    34    14    1
    10     9     2    2
    11     9    14    1
    12     2     1    1
    13    17     1    1
    14    16     1    1
    15    14    35    1
    16    14    36    1
    17     1     3    1
    18    10    26    1
    19    10     8    2
    20    32    13    1
    21    31    13    1
    22     8    13    1
    23     8     6    1
    24    13    33    1
    25    28    12    1
    26     3    18    1
    27     3    19    1
    28     3     5    1
    29    22     6    1
    30    12     5    1
    31    12    29    1
    32    12    30    1
    33     5    11    2
    34     6    23    1
    35     6     7    1
    36    27    11    1
    37    11     7    1
    38     7    25    1
    39     7    24    1
