@<TRIPOS>MOLECULE
11996452_5_run_6.pdb
 42 44 0 0 0
SMALL
GASTEIGER

@<TRIPOS>ATOM
      1    O       30.8520    0.0620    4.3840 O.3     2  LIG2       -0.3886
      2    C       27.6840    2.6990    3.4080 C.3     2  LIG2       -0.0289
      3    C       27.0270    3.7510    4.2830 C.3     2  LIG2       -0.0284
      4    C       28.5250    3.8350    4.0330 C.3     2  LIG2       -0.0319
      5    C       27.9220    1.1810    3.7150 C.3     2  LIG2       -0.0294
      6    C       28.5650    0.7220    5.0510 C.3     2  LIG2       -0.0090
      7    C       29.5930    3.5380    5.1140 C.3     2  LIG2       -0.0468
      8    C       26.7210    0.2270    3.4380 C.3     2  LIG2       -0.0404
      9    C       30.1050    0.9710    5.1780 C.3     2  LIG2        0.0664
     10    C       28.1160   -0.7430    5.1960 C.3     2  LIG2       -0.0471
     11    C       30.5540    2.3930    4.7400 C.3     2  LIG2       -0.0237
     12    C       26.1550    4.7790    3.5340 C.3     2  LIG2       -0.0593
     13    C       26.4640    3.5020    5.7040 C.3     2  LIG2       -0.0593
     14    C       26.7130   -0.7830    4.5970 C.3     2  LIG2       -0.0498
     15    C       25.3420    0.8920    3.2470 C.3     2  LIG2       -0.0621
     16    C       30.5710    0.7120    6.6300 C.3     2  LIG2       -0.0358
     17    H       27.4910    2.8000    2.3390 H       2  LIG2        0.0312
     18    H       28.8490    4.6470    3.3820 H       2  LIG2        0.0309
     19    H       28.6600    0.8990    2.9610 H       2  LIG2        0.0310
     20    H       28.0890    1.2350    5.8750 H       2  LIG2        0.0331
     21    H       30.1960    4.4420    5.2150 H       2  LIG2        0.0269
     22    H       29.1720    3.3850    6.1050 H       2  LIG2        0.0269
     23    H       26.9280   -0.3260    2.5190 H       2  LIG2        0.0301
     24    H       28.7720   -1.4220    4.6500 H       2  LIG2        0.0269
     25    H       28.1070   -1.0690    6.2380 H       2  LIG2        0.0269
     26    H       30.7000    2.4280    3.6580 H       2  LIG2        0.0293
     27    H       31.5370    2.6130    5.1620 H       2  LIG2        0.0293
     28    H       26.0900    5.7170    4.0850 H       2  LIG2        0.0235
     29    H       25.1410    4.4010    3.3950 H       2  LIG2        0.0235
     30    H       26.5490    5.0150    2.5450 H       2  LIG2        0.0235
     31    H       26.3430    4.4510    6.2270 H       2  LIG2        0.0235
     32    H       27.0750    2.8970    6.3580 H       2  LIG2        0.0235
     33    H       25.4800    3.0370    5.6620 H       2  LIG2        0.0235
     34    H       25.9790   -0.5020    5.3550 H       2  LIG2        0.0268
     35    H       26.4570   -1.7890    4.2600 H       2  LIG2        0.0268
     36    H       25.0300    1.4430    4.1320 H       2  LIG2        0.0233
     37    H       24.5770    0.1430    3.0440 H       2  LIG2        0.0233
     38    H       25.3450    1.5830    2.4030 H       2  LIG2        0.0233
     39    H       30.0860    1.3920    7.3320 H       2  LIG2        0.0257
     40    H       31.6480    0.8440    6.7460 H       2  LIG2        0.0257
     41    H       30.3410   -0.3040    6.9550 H       2  LIG2        0.0257
     42    H       31.7600    0.3690    4.3450 H       2  LIG2        0.2102
@<TRIPOS>BOND
     1    17     2    1
     2    38    15    1
     3    23     8    1
     4    30    12    1
     5    19     5    1
     6    37    15    1
     7    15     8    1
     8    15    36    1
     9    18     4    1
    10    29    12    1
    11     2     5    1
    12     2     4    1
    13     2     3    1
    14     8     5    1
    15     8    14    1
    16    12    28    1
    17    12     3    1
    18    26    11    1
    19     5     6    1
    20     4     3    1
    21     4     7    1
    22    35    14    1
    23     3    13    1
    24    42     1    1
    25     1     9    1
    26    14    10    1
    27    14    34    1
    28    24    10    1
    29    11     7    1
    30    11    27    1
    31    11     9    1
    32     6     9    1
    33     6    10    1
    34     6    20    1
    35     7    21    1
    36     7    22    1
    37     9    16    1
    38    10    25    1
    39    33    13    1
    40    13    31    1
    41    13    32    1
    42    16    40    1
    43    16    41    1
    44    16    39    1
@<TRIPOS>MOLECULE
11996452_5_run_2.pdb
 42 44 0 0 0
SMALL
GASTEIGER

@<TRIPOS>ATOM
      1    O       25.2380    0.4710    5.0780 O.3     2  LIG2       -0.3886
      2    C       27.0660    4.2700    5.4790 C.3     2  LIG2       -0.0289
      3    C       27.0710    5.4260    4.4940 C.3     2  LIG2       -0.0284
      4    C       25.7360    4.8880    4.9890 C.3     2  LIG2       -0.0319
      5    C       27.4620    2.7750    5.2350 C.3     2  LIG2       -0.0294
      6    C       26.8940    1.9780    4.0300 C.3     2  LIG2       -0.0090
      7    C       24.7560    4.0790    4.1040 C.3     2  LIG2       -0.0468
      8    C       28.9830    2.4440    5.3210 C.3     2  LIG2       -0.0404
      9    C       25.3970    1.5410    4.1590 C.3     2  LIG2        0.0664
     10    C       27.9040    0.8340    3.8310 C.3     2  LIG2       -0.0471
     11    C       24.4480    2.6700    4.6470 C.3     2  LIG2       -0.0237
     12    C       27.5140    6.7830    5.0750 C.3     2  LIG2       -0.0593
     13    C       27.4740    5.3210    3.0020 C.3     2  LIG2       -0.0593
     14    C       29.2580    1.4400    4.1890 C.3     2  LIG2       -0.0498
     15    C       29.9530    3.6430    5.2710 C.3     2  LIG2       -0.0621
     16    C       24.8830    0.9900    2.8080 C.3     2  LIG2       -0.0358
     17    H       27.3490    4.5320    6.5000 H       2  LIG2        0.0312
     18    H       25.1920    5.5380    5.6750 H       2  LIG2        0.0309
     19    H       27.0360    2.2700    6.1050 H       2  LIG2        0.0310
     20    H       26.9780    2.5740    3.1330 H       2  LIG2        0.0331
     21    H       23.8160    4.6320    4.0940 H       2  LIG2        0.0269
     22    H       25.0530    4.0370    3.0590 H       2  LIG2        0.0269
     23    H       29.1710    1.9340    6.2680 H       2  LIG2        0.0301
     24    H       27.6910   -0.0110    4.4870 H       2  LIG2        0.0269
     25    H       27.9010    0.4560    2.8070 H       2  LIG2        0.0269
     26    H       24.4590    2.7300    5.7390 H       2  LIG2        0.0293
     27    H       23.4160    2.4190    4.3920 H       2  LIG2        0.0293
     28    H       27.0880    7.6120    4.5090 H       2  LIG2        0.0235
     29    H       28.6000    6.8820    5.0480 H       2  LIG2        0.0235
     30    H       27.2050    6.9110    6.1120 H       2  LIG2        0.0235
     31    H       27.0970    6.1850    2.4550 H       2  LIG2        0.0235
     32    H       27.0960    4.4620    2.4670 H       2  LIG2        0.0235
     33    H       28.5570    5.3200    2.8860 H       2  LIG2        0.0235
     34    H       29.6800    1.9410    3.3160 H       2  LIG2        0.0268
     35    H       29.9670    0.6680    4.4920 H       2  LIG2        0.0268
     36    H       29.8660    4.1990    4.3400 H       2  LIG2        0.0233
     37    H       30.9870    3.3080    5.3530 H       2  LIG2        0.0233
     38    H       29.7760    4.3350    6.0950 H       2  LIG2        0.0233
     39    H       24.9200    1.7500    2.0270 H       2  LIG2        0.0257
     40    H       23.8490    0.6450    2.8710 H       2  LIG2        0.0257
     41    H       25.4770    0.1430    2.4620 H       2  LIG2        0.0257
     42    H       25.4940    0.7790    5.9490 H       2  LIG2        0.2102
@<TRIPOS>BOND
     1    39    16    1
     2    31    13    1
     3    41    16    1
     4    32    13    1
     5    25    10    1
     6    16    40    1
     7    16     9    1
     8    33    13    1
     9    13     3    1
    10    22     7    1
    11    20     6    1
    12    34    14    1
    13    10     6    1
    14    10    14    1
    15    10    24    1
    16     6     9    1
    17     6     5    1
    18    21     7    1
    19     7    11    1
    20     7     4    1
    21     9    11    1
    22     9     1    1
    23    14    35    1
    24    14     8    1
    25    36    15    1
    26    27    11    1
    27     3     4    1
    28     3    12    1
    29     3     2    1
    30    28    12    1
    31    11    26    1
    32     4     2    1
    33     4    18    1
    34    29    12    1
    35    12    30    1
    36     1    42    1
    37     5     8    1
    38     5     2    1
    39     5    19    1
    40    15     8    1
    41    15    37    1
    42    15    38    1
    43     8    23    1
    44     2    17    1
@<TRIPOS>MOLECULE
11996452_5_run_18.pdb
 42 44 0 0 0
SMALL
GASTEIGER

@<TRIPOS>ATOM
      1    O       25.3890    4.5600    4.9570 O.3     2  LIG2       -0.3886
      2    C       28.2460    1.4780    5.4830 C.3     2  LIG2       -0.0289
      3    C       29.6230    1.3490    4.8570 C.3     2  LIG2       -0.0284
      4    C       29.3050    2.5850    5.6850 C.3     2  LIG2       -0.0319
      5    C       26.8690    1.7220    4.7760 C.3     2  LIG2       -0.0294
      6    C       26.6910    2.8550    3.7310 C.3     2  LIG2       -0.0090
      7    C       29.1130    3.9970    5.0800 C.3     2  LIG2       -0.0468
      8    C       26.1570    0.4590    4.2030 C.3     2  LIG2       -0.0404
      9    C       26.6280    4.3050    4.3140 C.3     2  LIG2        0.0664
     10    C       25.4640    2.4150    2.9110 C.3     2  LIG2       -0.0471
     11    C       27.7290    4.6130    5.3660 C.3     2  LIG2       -0.0237
     12    C       30.5500    0.3090    5.5170 C.3     2  LIG2       -0.0593
     13    C       29.9250    1.4550    3.3420 C.3     2  LIG2       -0.0593
     14    C       25.5550    0.8930    2.8570 C.3     2  LIG2       -0.0498
     15    C       27.0190   -0.8130    4.0620 C.3     2  LIG2       -0.0621
     16    C       26.7080    5.3450    3.1710 C.3     2  LIG2       -0.0358
     17    H       28.0710    0.8400    6.3510 H       2  LIG2        0.0312
     18    H       29.8030    2.6440    6.6540 H       2  LIG2        0.0309
     19    H       26.2270    2.0300    5.6050 H       2  LIG2        0.0310
     20    H       27.5110    2.8270    3.0270 H       2  LIG2        0.0331
     21    H       29.8550    4.6440    5.5510 H       2  LIG2        0.0269
     22    H       29.3490    4.0470    4.0200 H       2  LIG2        0.0269
     23    H       25.3300    0.2000    4.8670 H       2  LIG2        0.0301
     24    H       24.5310    2.7140    3.3900 H       2  LIG2        0.0269
     25    H       25.4650    2.8450    1.9080 H       2  LIG2        0.0269
     26    H       27.4160    4.2680    6.3550 H       2  LIG2        0.0293
     27    H       27.8460    5.6930    5.4710 H       2  LIG2        0.0293
     28    H       31.5990    0.5590    5.3570 H       2  LIG2        0.0235
     29    H       30.3760   -0.6850    5.1040 H       2  LIG2        0.0235
     30    H       30.3980    0.2420    6.5950 H       2  LIG2        0.0235
     31    H       30.9870    1.6430    3.1880 H       2  LIG2        0.0235
     32    H       29.4200    2.2480    2.8110 H       2  LIG2        0.0235
     33    H       29.6910    0.5240    2.8270 H       2  LIG2        0.0235
     34    H       26.1950    0.5910    2.0260 H       2  LIG2        0.0268
     35    H       24.5740    0.4460    2.6860 H       2  LIG2        0.0268
     36    H       27.8570   -0.6640    3.3840 H       2  LIG2        0.0233
     37    H       26.4270   -1.6390    3.6690 H       2  LIG2        0.0233
     38    H       27.4170   -1.1360    5.0250 H       2  LIG2        0.0233
     39    H       27.6510    5.2680    2.6280 H       2  LIG2        0.0257
     40    H       26.6340    6.3690    3.5410 H       2  LIG2        0.0257
     41    H       25.9050    5.2130    2.4450 H       2  LIG2        0.0257
     42    H       25.2810    3.9270    5.6690 H       2  LIG2        0.2102
@<TRIPOS>BOND
     1    25    10    1
     2    34    14    1
     3    41    16    1
     4    39    16    1
     5    35    14    1
     6    32    13    1
     7    33    13    1
     8    14    10    1
     9    14     8    1
    10    10    24    1
    11    10     6    1
    12    20     6    1
    13    16    40    1
    14    16     9    1
    15    31    13    1
    16    13     3    1
    17    36    15    1
    18    37    15    1
    19     6     9    1
    20     6     5    1
    21    22     7    1
    22    15     8    1
    23    15    38    1
    24     8     5    1
    25     8    23    1
    26     9     1    1
    27     9    11    1
    28     5     2    1
    29     5    19    1
    30     3     2    1
    31     3    12    1
    32     3     4    1
    33     1    42    1
    34     7    11    1
    35     7    21    1
    36     7     4    1
    37    29    12    1
    38    28    12    1
    39    11    27    1
    40    11    26    1
    41     2     4    1
    42     2    17    1
    43    12    30    1
    44     4    18    1
@<TRIPOS>MOLECULE
11996452_5_run_16.pdb
 42 44 0 0 0
SMALL
GASTEIGER

@<TRIPOS>ATOM
      1    O       23.3010    3.6440    3.1570 O.3     2  LIG2       -0.3886
      2    C       27.5000    3.0870    3.1860 C.3     2  LIG2       -0.0289
      3    C       28.3460    2.3300    4.1940 C.3     2  LIG2       -0.0284
      4    C       27.2320    1.5910    3.4670 C.3     2  LIG2       -0.0319
      5    C       26.4430    4.2140    3.4450 C.3     2  LIG2       -0.0294
      6    C       25.3290    4.0420    4.5120 C.3     2  LIG2       -0.0090
      7    C       25.9230    1.1260    4.1490 C.3     2  LIG2       -0.0468
      8    C       27.0050    5.6600    3.6040 C.3     2  LIG2       -0.0404
      9    C       24.1680    3.0690    4.1230 C.3     2  LIG2        0.0664
     10    C       24.9040    5.4850    4.8420 C.3     2  LIG2       -0.0471
     11    C       24.6490    1.7200    3.5180 C.3     2  LIG2       -0.0237
     12    C       29.7840    2.0120    3.7380 C.3     2  LIG2       -0.0593
     13    C       28.3010    2.5380    5.7280 C.3     2  LIG2       -0.0593
     14    C       26.1850    6.3050    4.7340 C.3     2  LIG2       -0.0498
     15    C       28.5230    5.7850    3.8520 C.3     2  LIG2       -0.0621
     16    C       23.2700    2.7880    5.3510 C.3     2  LIG2       -0.0358
     17    H       27.9920    3.2990    2.2350 H       2  LIG2        0.0312
     18    H       27.5580    0.8660    2.7200 H       2  LIG2        0.0309
     19    H       25.8950    4.2490    2.5010 H       2  LIG2        0.0310
     20    H       25.7640    3.6720    5.4290 H       2  LIG2        0.0331
     21    H       25.8700    0.0440    4.0200 H       2  LIG2        0.0269
     22    H       25.9260    1.2670    5.2270 H       2  LIG2        0.0269
     23    H       26.7950    6.2120    2.6860 H       2  LIG2        0.0301
     24    H       24.1640    5.8590    4.1330 H       2  LIG2        0.0269
     25    H       24.4670    5.5670    5.8390 H       2  LIG2        0.0269
     26    H       24.8340    1.8290    2.4470 H       2  LIG2        0.0293
     27    H       23.8490    0.9800    3.5900 H       2  LIG2        0.0293
     28    H       30.1740    1.1330    4.2510 H       2  LIG2        0.0235
     29    H       30.4530    2.8470    3.9490 H       2  LIG2        0.0235
     30    H       29.8450    1.8120    2.6680 H       2  LIG2        0.0235
     31    H       28.7500    1.6820    6.2310 H       2  LIG2        0.0235
     32    H       27.3190    2.6390    6.1650 H       2  LIG2        0.0235
     33    H       28.8750    3.4160    6.0230 H       2  LIG2        0.0235
     34    H       26.7280    6.2690    5.6800 H       2  LIG2        0.0268
     35    H       25.9660    7.3540    4.5290 H       2  LIG2        0.0268
     36    H       28.8270    5.2920    4.7730 H       2  LIG2        0.0233
     37    H       28.8150    6.8320    3.9340 H       2  LIG2        0.0233
     38    H       29.0990    5.3560    3.0330 H       2  LIG2        0.0233
     39    H       23.8310    2.3010    6.1500 H       2  LIG2        0.0257
     40    H       22.4300    2.1370    5.1050 H       2  LIG2        0.0257
     41    H       22.8490    3.7050    5.7640 H       2  LIG2        0.0257
     42    H       22.5830    3.0300    2.9900 H       2  LIG2        0.2102
@<TRIPOS>BOND
     1    17     2    1
     2    26    11    1
     3    19     5    1
     4    30    12    1
     5    23     8    1
     6    18     4    1
     7    42     1    1
     8    38    15    1
     9     1     9    1
    10     2     5    1
    11     2     4    1
    12     2     3    1
    13     5     8    1
    14     5     6    1
    15     4     7    1
    16     4     3    1
    17    11    27    1
    18    11     9    1
    19    11     7    1
    20     8    15    1
    21     8    14    1
    22    12    29    1
    23    12     3    1
    24    12    28    1
    25    15    37    1
    26    15    36    1
    27    21     7    1
    28     9     6    1
    29     9    16    1
    30    24    10    1
    31     7    22    1
    32     3    13    1
    33     6    10    1
    34     6    20    1
    35    35    14    1
    36    14    10    1
    37    14    34    1
    38    10    25    1
    39    40    16    1
    40    16    41    1
    41    16    39    1
    42    13    33    1
    43    13    32    1
    44    13    31    1
@<TRIPOS>MOLECULE
11996452_5_run_10.pdb
 42 44 0 0 0
SMALL
GASTEIGER

@<TRIPOS>ATOM
      1    O       29.6360    1.1450    6.8100 O.3     2  LIG2       -0.3886
      2    C       26.0580    1.9400    4.6880 C.3     2  LIG2       -0.0289
      3    C       25.7410    1.6600    3.2300 C.3     2  LIG2       -0.0284
      4    C       26.1480    0.5020    4.1290 C.3     2  LIG2       -0.0319
      5    C       27.2820    2.7070    5.2940 C.3     2  LIG2       -0.0294
      6    C       28.7350    2.3710    4.8620 C.3     2  LIG2       -0.0090
      7    C       27.5070   -0.2310    4.0220 C.3     2  LIG2       -0.0468
      8    C       27.1680    4.2610    5.3340 C.3     2  LIG2       -0.0404
      9    C       29.3140    1.0340    5.4310 C.3     2  LIG2        0.0664
     10    C       29.5300    3.6420    5.2140 C.3     2  LIG2       -0.0471
     11    C       28.3460   -0.1760    5.3130 C.3     2  LIG2       -0.0237
     12    C       24.2480    1.7370    2.8540 C.3     2  LIG2       -0.0593
     13    C       26.6210    2.0900    2.0300 C.3     2  LIG2       -0.0593
     14    C       28.5620    4.7930    4.9590 C.3     2  LIG2       -0.0498
     15    C       26.0600    4.8940    4.4660 C.3     2  LIG2       -0.0621
     16    C       30.6510    0.6900    4.7340 C.3     2  LIG2       -0.0358
     17    H       25.1900    2.1380    5.3200 H       2  LIG2        0.0312
     18    H       25.3500   -0.1960    4.3870 H       2  LIG2        0.0309
     19    H       27.2490    2.4150    6.3460 H       2  LIG2        0.0310
     20    H       28.7850    2.3100    3.7850 H       2  LIG2        0.0331
     21    H       27.2820   -1.2820    3.8310 H       2  LIG2        0.0269
     22    H       28.0960    0.0760    3.1610 H       2  LIG2        0.0269
     23    H       26.9650    4.5640    6.3630 H       2  LIG2        0.0301
     24    H       29.8440    3.6450    6.2580 H       2  LIG2        0.0269
     25    H       30.4310    3.7440    4.6050 H       2  LIG2        0.0269
     26    H       27.6510   -0.1900    6.1570 H       2  LIG2        0.0293
     27    H       28.9100   -1.1070    5.4000 H       2  LIG2        0.0293
     28    H       24.0280    1.1200    1.9840 H       2  LIG2        0.0235
     29    H       23.9580    2.7620    2.6200 H       2  LIG2        0.0235
     30    H       23.5990    1.3960    3.6610 H       2  LIG2        0.0235
     31    H       26.3520    1.5110    1.1470 H       2  LIG2        0.0235
     32    H       27.6860    1.9480    2.1460 H       2  LIG2        0.0235
     33    H       26.4620    3.1380    1.7810 H       2  LIG2        0.0235
     34    H       28.6000    5.0820    3.9070 H       2  LIG2        0.0268
     35    H       28.8330    5.6730    5.5440 H       2  LIG2        0.0268
     36    H       26.1980    4.6770    3.4090 H       2  LIG2        0.0233
     37    H       26.0550    5.9780    4.5760 H       2  LIG2        0.0233
     38    H       25.0720    4.5380    4.7570 H       2  LIG2        0.0233
     39    H       30.5140    0.5390    3.6620 H       2  LIG2        0.0257
     40    H       31.1000   -0.2220    5.1310 H       2  LIG2        0.0257
     41    H       31.3890    1.4840    4.8560 H       2  LIG2        0.0257
     42    H       30.0170    0.3130    7.1000 H       2  LIG2        0.2102
@<TRIPOS>BOND
     1    31    13    1
     2    33    13    1
     3    28    12    1
     4    13    32    1
     5    13     3    1
     6    29    12    1
     7    12     3    1
     8    12    30    1
     9    22     7    1
    10     3     4    1
    11     3     2    1
    12    36    15    1
    13    39    16    1
    14    20     6    1
    15    21     7    1
    16    34    14    1
    17     7     4    1
    18     7    11    1
    19     4    18    1
    20     4     2    1
    21    15    37    1
    22    15    38    1
    23    15     8    1
    24    25    10    1
    25     2     5    1
    26     2    17    1
    27    16    41    1
    28    16    40    1
    29    16     9    1
    30     6    10    1
    31     6     5    1
    32     6     9    1
    33    14    10    1
    34    14     8    1
    35    14    35    1
    36    10    24    1
    37     5     8    1
    38     5    19    1
    39    11    27    1
    40    11     9    1
    41    11    26    1
    42     8    23    1
    43     9     1    1
    44     1    42    1
@<TRIPOS>MOLECULE
11996452_5_run_23.pdb
 42 44 0 0 0
SMALL
GASTEIGER

@<TRIPOS>ATOM
      1    O       27.9630    0.7530    2.7590 O.3     2  LIG2       -0.3886
      2    C       26.5600    4.6620    3.5880 C.3     2  LIG2       -0.0289
      3    C       26.7480    5.4860    4.8490 C.3     2  LIG2       -0.0284
      4    C       27.9790    4.9900    4.1050 C.3     2  LIG2       -0.0319
      5    C       26.0110    3.2020    3.4460 C.3     2  LIG2       -0.0294
      6    C       26.5590    2.0470    4.3270 C.3     2  LIG2       -0.0090
      7    C       28.9140    3.8770    4.6390 C.3     2  LIG2       -0.0468
      8    C       24.4600    3.0510    3.4120 C.3     2  LIG2       -0.0404
      9    C       27.9850    1.5290    3.9470 C.3     2  LIG2        0.0664
     10    C       25.4390    0.9920    4.2960 C.3     2  LIG2       -0.0471
     11    C       29.0250    2.6580    3.7030 C.3     2  LIG2       -0.0237
     12    C       26.4280    6.9880    4.7080 C.3     2  LIG2       -0.0593
     13    C       26.4300    5.0000    6.2850 C.3     2  LIG2       -0.0593
     14    C       24.1440    1.7970    4.2440 C.3     2  LIG2       -0.0498
     15    C       23.6390    4.2710    3.8790 C.3     2  LIG2       -0.0621
     16    C       28.5160    0.5720    5.0410 C.3     2  LIG2       -0.0358
     17    H       26.2460    5.2270    2.7090 H       2  LIG2        0.0312
     18    H       28.5510    5.7550    3.5780 H       2  LIG2        0.0309
     19    H       26.3220    2.9280    2.4350 H       2  LIG2        0.0310
     20    H       26.5990    2.3700    5.3580 H       2  LIG2        0.0331
     21    H       29.9100    4.3140    4.7150 H       2  LIG2        0.0269
     22    H       28.6790    3.5680    5.6550 H       2  LIG2        0.0269
     23    H       24.1570    2.8490    2.3830 H       2  LIG2        0.0301
     24    H       25.5120    0.3520    3.4160 H       2  LIG2        0.0269
     25    H       25.4620    0.3410    5.1720 H       2  LIG2        0.0269
     26    H       28.9530    3.0250    2.6760 H       2  LIG2        0.0293
     27    H       30.0350    2.2500    3.7840 H       2  LIG2        0.0293
     28    H       26.9800    7.5790    5.4380 H       2  LIG2        0.0235
     29    H       25.3640    7.1750    4.8600 H       2  LIG2        0.0235
     30    H       26.6850    7.3760    3.7220 H       2  LIG2        0.0235
     31    H       26.9360    5.6360    7.0120 H       2  LIG2        0.0235
     32    H       26.7400    3.9940    6.5260 H       2  LIG2        0.0235
     33    H       25.3630    5.0670    6.4960 H       2  LIG2        0.0235
     34    H       23.8360    2.0660    5.2560 H       2  LIG2        0.0268
     35    H       23.3330    1.2120    3.8070 H       2  LIG2        0.0268
     36    H       23.8460    4.5290    4.9150 H       2  LIG2        0.0233
     37    H       22.5700    4.0690    3.8030 H       2  LIG2        0.0233
     38    H       23.8420    5.1490    3.2650 H       2  LIG2        0.0233
     39    H       28.6140    1.0800    6.0010 H       2  LIG2        0.0257
     40    H       29.4970    0.1650    4.7900 H       2  LIG2        0.0257
     41    H       27.8510   -0.2790    5.1930 H       2  LIG2        0.0257
     42    H       28.8540    0.4430    2.5820 H       2  LIG2        0.2102
@<TRIPOS>BOND
     1    23     8    1
     2    19     5    1
     3    42     1    1
     4    26    11    1
     5    17     2    1
     6     1     9    1
     7    38    15    1
     8     8     5    1
     9     8    15    1
    10     8    14    1
    11    24    10    1
    12     5     2    1
    13     5     6    1
    14    18     4    1
    15     2     4    1
    16     2     3    1
    17    11    27    1
    18    11     9    1
    19    11     7    1
    20    30    12    1
    21    37    15    1
    22    35    14    1
    23    15    36    1
    24     9     6    1
    25     9    16    1
    26     4     7    1
    27     4     3    1
    28    14    10    1
    29    14    34    1
    30    10     6    1
    31    10    25    1
    32     6    20    1
    33     7    21    1
    34     7    22    1
    35    12     3    1
    36    12    29    1
    37    12    28    1
    38    40    16    1
    39     3    13    1
    40    16    41    1
    41    16    39    1
    42    13    33    1
    43    13    32    1
    44    13    31    1
@<TRIPOS>MOLECULE
11996452_5_run_12.pdb
 42 44 0 0 0
SMALL
GASTEIGER

@<TRIPOS>ATOM
      1    O       28.0990    4.6260    2.8570 O.3     2  LIG2       -0.3886
      2    C       29.0170    0.5250    3.3800 C.3     2  LIG2       -0.0289
      3    C       28.1510   -0.5690    3.9800 C.3     2  LIG2       -0.0284
      4    C       27.6290    0.2060    2.7790 C.3     2  LIG2       -0.0319
      5    C       29.3930    1.9190    3.9880 C.3     2  LIG2       -0.0294
      6    C       28.3070    2.8600    4.5740 C.3     2  LIG2       -0.0090
      7    C       26.4690    1.2290    2.8560 C.3     2  LIG2       -0.0468
      8    C       30.5920    1.9340    4.9830 C.3     2  LIG2       -0.0404
      9    C       27.4020    3.5830    3.5220 C.3     2  LIG2        0.0664
     10    C       29.0900    3.7850    5.5230 C.3     2  LIG2       -0.0471
     11    C       26.8620    2.6480    2.4030 C.3     2  LIG2       -0.0237
     12    C       28.6260   -2.0090    3.7060 C.3     2  LIG2       -0.0593
     13    C       27.4420   -0.4880    5.3550 C.3     2  LIG2       -0.0593
     14    C       30.1930    2.9060    6.1050 C.3     2  LIG2       -0.0498
     15    C       31.0420    0.5670    5.5410 C.3     2  LIG2       -0.0621
     16    C       26.2130    4.2790    4.2250 C.3     2  LIG2       -0.0358
     17    H       29.8670    0.1720    2.7950 H       2  LIG2        0.0312
     18    H       27.5940   -0.3490    1.8410 H       2  LIG2        0.0309
     19    H       29.7670    2.4640    3.1180 H       2  LIG2        0.0310
     20    H       27.6540    2.2950    5.2240 H       2  LIG2        0.0331
     21    H       25.6960    0.8770    2.1720 H       2  LIG2        0.0269
     22    H       25.9780    1.2510    3.8260 H       2  LIG2        0.0269
     23    H       31.4580    2.3590    4.4710 H       2  LIG2        0.0301
     24    H       29.5300    4.6290    4.9910 H       2  LIG2        0.0269
     25    H       28.4560    4.1950    6.3120 H       2  LIG2        0.0269
     26    H       27.6020    2.5450    1.6050 H       2  LIG2        0.0293
     27    H       25.9970    3.1110    1.9240 H       2  LIG2        0.0293
     28    H       27.7940   -2.7130    3.7440 H       2  LIG2        0.0235
     29    H       29.3640   -2.3230    4.4450 H       2  LIG2        0.0235
     30    H       29.0880   -2.1140    2.7240 H       2  LIG2        0.0235
     31    H       26.6520   -1.2370    5.4090 H       2  LIG2        0.0235
     32    H       26.9570    0.4490    5.5860 H       2  LIG2        0.0235
     33    H       28.1350   -0.7010    6.1690 H       2  LIG2        0.0235
     34    H       29.8140    2.3660    6.9740 H       2  LIG2        0.0268
     35    H       31.0380    3.5070    6.4440 H       2  LIG2        0.0268
     36    H       30.2510    0.0780    6.1050 H       2  LIG2        0.0233
     37    H       31.8930    0.6850    6.2120 H       2  LIG2        0.0233
     38    H       31.3550   -0.1070    4.7440 H       2  LIG2        0.0233
     39    H       25.5780    3.5570    4.7400 H       2  LIG2        0.0257
     40    H       25.5800    4.8210    3.5210 H       2  LIG2        0.0257
     41    H       26.5490    5.0020    4.9700 H       2  LIG2        0.0257
     42    H       28.9940    4.3290    2.6800 H       2  LIG2        0.2102
@<TRIPOS>BOND
     1    26    11    1
     2    18     4    1
     3    27    11    1
     4    21     7    1
     5    11     7    1
     6    11     9    1
     7    42     1    1
     8    30    12    1
     9     4     7    1
    10     4     2    1
    11     4     3    1
    12    17     2    1
    13     7    22    1
    14     1     9    1
    15    19     5    1
    16     2     3    1
    17     2     5    1
    18    40    16    1
    19     9    16    1
    20     9     6    1
    21    12    28    1
    22    12     3    1
    23    12    29    1
    24     3    13    1
    25     5     6    1
    26     5     8    1
    27    16    39    1
    28    16    41    1
    29    23     8    1
    30     6    20    1
    31     6    10    1
    32    38    15    1
    33     8    15    1
    34     8    14    1
    35    24    10    1
    36    13    31    1
    37    13    32    1
    38    13    33    1
    39    10    14    1
    40    10    25    1
    41    15    36    1
    42    15    37    1
    43    14    35    1
    44    14    34    1
@<TRIPOS>MOLECULE
11996452_5_run_2.pdb
 42 44 0 0 0
SMALL
GASTEIGER

@<TRIPOS>ATOM
      1    O       28.7080   -1.4670    5.3550 O.3     2  LIG2       -0.3886
      2    C       26.7430    2.2700    5.0170 C.3     2  LIG2       -0.0289
      3    C       26.1330    2.9080    3.7830 C.3     2  LIG2       -0.0284
      4    C       25.6350    1.5400    4.2240 C.3     2  LIG2       -0.0319
      5    C       28.1870    1.6940    5.2080 C.3     2  LIG2       -0.0294
      6    C       28.8020    0.7060    4.1810 C.3     2  LIG2       -0.0090
      7    C       25.9320    0.2300    3.4550 C.3     2  LIG2       -0.0468
      8    C       29.2990    2.7270    5.5650 C.3     2  LIG2       -0.0404
      9    C       28.2340   -0.7510    4.2250 C.3     2  LIG2        0.0664
     10    C       30.3200    0.8340    4.4040 C.3     2  LIG2       -0.0471
     11    C       26.6830   -0.8250    4.2910 C.3     2  LIG2       -0.0237
     12    C       25.1880    4.0960    4.0550 C.3     2  LIG2       -0.0593
     13    C       26.8590    3.0980    2.4280 C.3     2  LIG2       -0.0593
     14    C       30.5400    2.2990    4.7650 C.3     2  LIG2       -0.0498
     15    C       28.9540    4.2140    5.3390 C.3     2  LIG2       -0.0621
     16    C       28.7330   -1.5570    3.0020 C.3     2  LIG2       -0.0358
     17    H       26.4250    2.7020    5.9670 H       2  LIG2        0.0312
     18    H       24.6320    1.5200    4.6510 H       2  LIG2        0.0309
     19    H       28.0870    1.0950    6.1160 H       2  LIG2        0.0310
     20    H       28.6420    1.0820    3.1810 H       2  LIG2        0.0331
     21    H       24.9660   -0.2020    3.1880 H       2  LIG2        0.0269
     22    H       26.4250    0.3930    2.5000 H       2  LIG2        0.0269
     23    H       29.5370    2.6230    6.6260 H       2  LIG2        0.0301
     24    H       30.6630    0.1950    5.2190 H       2  LIG2        0.0269
     25    H       30.8900    0.5580    3.5150 H       2  LIG2        0.0269
     26    H       26.3420   -0.7270    5.3250 H       2  LIG2        0.0293
     27    H       26.3490   -1.8160    3.9790 H       2  LIG2        0.0293
     28    H       24.4630    4.2150    3.2500 H       2  LIG2        0.0235
     29    H       25.7490    5.0280    4.1410 H       2  LIG2        0.0235
     30    H       24.6240    3.9730    4.9800 H       2  LIG2        0.0235
     31    H       26.1300    3.2780    1.6390 H       2  LIG2        0.0235
     32    H       27.4460    2.2600    2.0820 H       2  LIG2        0.0235
     33    H       27.5190    3.9640    2.4520 H       2  LIG2        0.0235
     34    H       30.6430    2.8930    3.8550 H       2  LIG2        0.0268
     35    H       31.4590    2.4300    5.3390 H       2  LIG2        0.0268
     36    H       28.7360    4.4270    4.2950 H       2  LIG2        0.0233
     37    H       29.7880    4.8530    5.6310 H       2  LIG2        0.0233
     38    H       28.0930    4.5210    5.9330 H       2  LIG2        0.0233
     39    H       28.3870   -1.1160    2.0670 H       2  LIG2        0.0257
     40    H       28.3810   -2.5900    3.0200 H       2  LIG2        0.0257
     41    H       29.8220   -1.5950    2.9580 H       2  LIG2        0.0257
     42    H       28.4280   -1.0040    6.1470 H       2  LIG2        0.2102
@<TRIPOS>BOND
     1    31    13    1
     2    39    16    1
     3    32    13    1
     4    13    33    1
     5    13     3    1
     6    22     7    1
     7    41    16    1
     8    16    40    1
     9    16     9    1
    10    20     6    1
    11    21     7    1
    12    28    12    1
    13     7     4    1
    14     7    11    1
    15    25    10    1
    16     3    12    1
    17     3     4    1
    18     3     2    1
    19    34    14    1
    20    27    11    1
    21    12    29    1
    22    12    30    1
    23     6     9    1
    24     6    10    1
    25     6     5    1
    26     4    18    1
    27     4     2    1
    28     9    11    1
    29     9     1    1
    30    11    26    1
    31    36    15    1
    32    10    14    1
    33    10    24    1
    34    14    35    1
    35    14     8    1
    36     2     5    1
    37     2    17    1
    38     5     8    1
    39     5    19    1
    40    15     8    1
    41    15    37    1
    42    15    38    1
    43     1    42    1
    44     8    23    1
@<TRIPOS>MOLECULE
11996452_5_run_4.pdb
 42 44 0 0 0
SMALL
GASTEIGER

@<TRIPOS>ATOM
      1    O       24.6870    6.7840    5.3670 O.3     2  LIG2       -0.3886
      2    C       27.3810    3.5170    5.2660 C.3     2  LIG2       -0.0289
      3    C       28.3920    3.1580    4.1920 C.3     2  LIG2       -0.0284
      4    C       28.4810    4.5230    4.8590 C.3     2  LIG2       -0.0319
      5    C       25.8490    3.8060    5.1110 C.3     2  LIG2       -0.0294
      6    C       25.3220    4.7980    4.0400 C.3     2  LIG2       -0.0090
      7    C       28.1280    5.8510    4.1460 C.3     2  LIG2       -0.0468
      8    C       24.9140    2.5600    5.0750 C.3     2  LIG2       -0.0404
      9    C       25.5590    6.3130    4.3500 C.3     2  LIG2        0.0664
     10    C       23.8530    4.3830    3.8390 C.3     2  LIG2       -0.0471
     11    C       26.9990    6.6430    4.8330 C.3     2  LIG2       -0.0237
     12    C       29.4580    2.1260    4.6100 C.3     2  LIG2       -0.0593
     13    C       28.0750    3.0240    2.6820 C.3     2  LIG2       -0.0593
     14    C       23.8480    2.8670    4.0100 C.3     2  LIG2       -0.0498
     15    C       25.5930    1.1960    4.8300 C.3     2  LIG2       -0.0621
     16    C       25.2260    7.1730    3.1080 C.3     2  LIG2       -0.0358
     17    H       27.5350    3.0260    6.2290 H       2  LIG2        0.0312
     18    H       29.3240    4.6600    5.5380 H       2  LIG2        0.0309
     19    H       25.6010    4.2910    6.0580 H       2  LIG2        0.0310
     20    H       25.7960    4.5880    3.0910 H       2  LIG2        0.0331
     21    H       29.0230    6.4730    4.1810 H       2  LIG2        0.0269
     22    H       27.9280    5.7300    3.0840 H       2  LIG2        0.0269
     23    H       24.4060    2.4830    6.0380 H       2  LIG2        0.0301
     24    H       23.2000    4.8420    4.5820 H       2  LIG2        0.0269
     25    H       23.4760    4.6690    2.8550 H       2  LIG2        0.0269
     26    H       27.0870    6.4720    5.9090 H       2  LIG2        0.0293
     27    H       27.1940    7.7090    4.7030 H       2  LIG2        0.0293
     28    H       30.3680    2.2390    4.0210 H       2  LIG2        0.0235
     29    H       29.0910    1.1090    4.4680 H       2  LIG2        0.0235
     30    H       29.7410    2.2230    5.6580 H       2  LIG2        0.0235
     31    H       28.9970    3.0750    2.1030 H       2  LIG2        0.0235
     32    H       27.4360    3.7850    2.2600 H       2  LIG2        0.0235
     33    H       27.6160    2.0610    2.4600 H       2  LIG2        0.0235
     34    H       24.0940    2.3880    3.0610 H       2  LIG2        0.0268
     35    H       22.8610    2.5070    4.3050 H       2  LIG2        0.0268
     36    H       26.1010    1.1610    3.8680 H       2  LIG2        0.0233
     37    H       24.8580    0.3910    4.8370 H       2  LIG2        0.0233
     38    H       26.3250    0.9680    5.6050 H       2  LIG2        0.0233
     39    H       25.8730    6.9220    2.2660 H       2  LIG2        0.0257
     40    H       25.3490    8.2400    3.3010 H       2  LIG2        0.0257
     41    H       24.1970    7.0280    2.7780 H       2  LIG2        0.0257
     42    H       23.7850    6.7170    5.0490 H       2  LIG2        0.2102
@<TRIPOS>BOND
     1    31    13    1
     2    32    13    1
     3    39    16    1
     4    33    13    1
     5    13     3    1
     6    41    16    1
     7    25    10    1
     8    34    14    1
     9    22     7    1
    10    20     6    1
    11    16    40    1
    12    16     9    1
    13    10    14    1
    14    10     6    1
    15    10    24    1
    16    36    15    1
    17    14    35    1
    18    14     8    1
    19    28    12    1
    20     6     9    1
    21     6     5    1
    22     7    21    1
    23     7    11    1
    24     7     4    1
    25     3    12    1
    26     3     4    1
    27     3     2    1
    28     9    11    1
    29     9     1    1
    30    29    12    1
    31    12    30    1
    32    27    11    1
    33    15    37    1
    34    15     8    1
    35    15    38    1
    36    11    26    1
    37     4     2    1
    38     4    18    1
    39    42     1    1
    40     8     5    1
    41     8    23    1
    42     5     2    1
    43     5    19    1
    44     2    17    1
@<TRIPOS>MOLECULE
11996452_5_run_12.pdb
 42 44 0 0 0
SMALL
GASTEIGER

@<TRIPOS>ATOM
      1    O       24.9700    4.0350    3.1050 O.3     2  LIG2       -0.3886
      2    C       28.3070    1.4320    3.2620 C.3     2  LIG2       -0.0289
      3    C       28.4760    0.1610    4.0750 C.3     2  LIG2       -0.0284
      4    C       27.3150    0.2580    3.0970 C.3     2  LIG2       -0.0319
      5    C       27.8810    2.8570    3.7530 C.3     2  LIG2       -0.0294
      6    C       26.6320    3.0580    4.6520 C.3     2  LIG2       -0.0090
      7    C       25.8350    0.3930    3.5330 C.3     2  LIG2       -0.0468
      8    C       29.0150    3.7480    4.3450 C.3     2  LIG2       -0.0404
      9    C       25.2520    2.9140    3.9290 C.3     2  LIG2        0.0664
     10    C       26.8830    4.4130    5.3400 C.3     2  LIG2       -0.0471
     11    C       25.1470    1.6680    3.0070 C.3     2  LIG2       -0.0237
     12    C       29.6510   -0.7420    3.6470 C.3     2  LIG2       -0.0593
     13    C       28.2330    0.0400    5.6000 C.3     2  LIG2       -0.0593
     14    C       28.3930    4.4700    5.5510 C.3     2  LIG2       -0.0498
     15    C       30.3280    3.0310    4.7210 C.3     2  LIG2       -0.0621
     16    C       24.1050    2.8810    4.9670 C.3     2  LIG2       -0.0358
     17    H       29.0180    1.5560    2.4440 H       2  LIG2        0.0312
     18    H       27.4000   -0.3600    2.2020 H       2  LIG2        0.0309
     19    H       27.6140    3.3600    2.8210 H       2  LIG2        0.0310
     20    H       26.6490    2.3380    5.4570 H       2  LIG2        0.0331
     21    H       25.3040   -0.4580    3.1050 H       2  LIG2        0.0269
     22    H       25.6910    0.2860    4.6060 H       2  LIG2        0.0269
     23    H       29.2770    4.5060    3.6050 H       2  LIG2        0.0301
     24    H       26.5640    5.2480    4.7140 H       2  LIG2        0.0269
     25    H       26.3490    4.4970    6.2890 H       2  LIG2        0.0269
     26    H       25.5690    1.8860    2.0240 H       2  LIG2        0.0293
     27    H       24.0960    1.4400    2.8160 H       2  LIG2        0.0293
     28    H       29.4690   -1.7810    3.9200 H       2  LIG2        0.0235
     29    H       30.5780   -0.4270    4.1270 H       2  LIG2        0.0235
     30    H       29.8210   -0.7190    2.5700 H       2  LIG2        0.0235
     31    H       28.1140   -1.0080    5.8740 H       2  LIG2        0.0235
     32    H       27.3500    0.5330    5.9800 H       2  LIG2        0.0235
     33    H       29.0820    0.4210    6.1660 H       2  LIG2        0.0235
     34    H       28.6540    3.9690    6.4850 H       2  LIG2        0.0268
     35    H       28.7400    5.5010    5.6320 H       2  LIG2        0.0268
     36    H       30.1740    2.2740    5.4860 H       2  LIG2        0.0233
     37    H       31.0580    3.7410    5.1100 H       2  LIG2        0.0233
     38    H       30.7830    2.5480    3.8550 H       2  LIG2        0.0233
     39    H       24.1980    2.0250    5.6360 H       2  LIG2        0.0257
     40    H       23.1240    2.8150    4.4940 H       2  LIG2        0.0257
     41    H       24.0950    3.7770    5.5900 H       2  LIG2        0.0257
     42    H       25.6960    4.1480    2.4880 H       2  LIG2        0.2102
@<TRIPOS>BOND
     1    26    11    1
     2    18     4    1
     3    17     2    1
     4    42     1    1
     5    30    12    1
     6    27    11    1
     7    19     5    1
     8    11     7    1
     9    11     9    1
    10     4     2    1
    11     4     7    1
    12     4     3    1
    13     1     9    1
    14    21     7    1
    15     2     5    1
    16     2     3    1
    17     7    22    1
    18    23     8    1
    19    12    28    1
    20    12     3    1
    21    12    29    1
    22     5     8    1
    23     5     6    1
    24    38    15    1
    25     9     6    1
    26     9    16    1
    27     3    13    1
    28     8    15    1
    29     8    14    1
    30    40    16    1
    31     6    10    1
    32     6    20    1
    33    24    10    1
    34    15    37    1
    35    15    36    1
    36    16    41    1
    37    16    39    1
    38    10    14    1
    39    10    25    1
    40    14    35    1
    41    14    34    1
    42    13    31    1
    43    13    32    1
    44    13    33    1
