@<TRIPOS>MOLECULE
11996452_2_run_17.pdb
 42 44 0 0 0
SMALL
GASTEIGER

@<TRIPOS>ATOM
      1    O       31.3490    2.3930    4.3090 O.3     2  LIG2       -0.3886
      2    C       26.9190    1.2690    4.7300 C.3     2  LIG2       -0.0289
      3    C       26.2550    2.0380    3.6010 C.3     2  LIG2       -0.0284
      4    C       26.9830    2.8110    4.6840 C.3     2  LIG2       -0.0319
      5    C       28.1710    0.3410    4.6100 C.3     2  LIG2       -0.0294
      6    C       29.5420    0.8750    4.1260 C.3     2  LIG2       -0.0090
      7    C       28.3230    3.5480    4.4670 C.3     2  LIG2       -0.0468
      8    C       27.9050   -0.9240    3.7620 C.3     2  LIG2       -0.0404
      9    C       30.2750    1.8810    5.0820 C.3     2  LIG2        0.0664
     10    C       30.3170   -0.4130    3.7840 C.3     2  LIG2       -0.0471
     11    C       29.4080    3.1140    5.4710 C.3     2  LIG2       -0.0237
     12    C       26.7640    2.0150    2.1420 C.3     2  LIG2       -0.0593
     13    C       24.7150    2.0870    3.6400 C.3     2  LIG2       -0.0593
     14    C       29.2770   -1.4070    3.2570 C.3     2  LIG2       -0.0498
     15    C       27.0970   -2.0090    4.4970 C.3     2  LIG2       -0.0621
     16    C       30.8860    1.2580    6.3600 C.3     2  LIG2       -0.0358
     17    H       26.2340    0.8410    5.4630 H       2  LIG2        0.0312
     18    H       26.3430    3.3720    5.3670 H       2  LIG2        0.0309
     19    H       28.3590   -0.0040    5.6280 H       2  LIG2        0.0310
     20    H       29.4050    1.3720    3.1710 H       2  LIG2        0.0331
     21    H       28.6860    3.4940    3.4430 H       2  LIG2        0.0269
     22    H       28.1320    4.6090    4.6320 H       2  LIG2        0.0269
     23    H       27.3280   -0.6380    2.8800 H       2  LIG2        0.0301
     24    H       31.1000   -0.2320    3.0460 H       2  LIG2        0.0269
     25    H       30.7970   -0.8410    4.6630 H       2  LIG2        0.0269
     26    H       30.0530    3.9680    5.6900 H       2  LIG2        0.0293
     27    H       28.9090    2.9150    6.4220 H       2  LIG2        0.0293
     28    H       26.4140    2.8970    1.6050 H       2  LIG2        0.0235
     29    H       26.3810    1.1420    1.6130 H       2  LIG2        0.0235
     30    H       27.8400    2.0020    2.0290 H       2  LIG2        0.0235
     31    H       24.3360    2.9680    3.1200 H       2  LIG2        0.0235
     32    H       24.3280    2.1220    4.6590 H       2  LIG2        0.0235
     33    H       24.2850    1.2050    3.1620 H       2  LIG2        0.0235
     34    H       29.5110   -2.4220    3.5830 H       2  LIG2        0.0268
     35    H       29.2910   -1.4170    2.1670 H       2  LIG2        0.0268
     36    H       27.6210   -2.3610    5.3870 H       2  LIG2        0.0233
     37    H       26.9220   -2.8710    3.8530 H       2  LIG2        0.0233
     38    H       26.1230   -1.6330    4.8110 H       2  LIG2        0.0233
     39    H       30.1300    0.7560    6.9630 H       2  LIG2        0.0257
     40    H       31.3470    2.0200    6.9900 H       2  LIG2        0.0257
     41    H       31.6680    0.5320    6.1380 H       2  LIG2        0.0257
     42    H       31.9900    1.6910    4.1750 H       2  LIG2        0.2102
@<TRIPOS>BOND
     1    28    12    1
     2    29    12    1
     3    30    12    1
     4    12     3    1
     5    35    14    1
     6    23     8    1
     7    24    10    1
     8    31    13    1
     9    33    13    1
    10    20     6    1
    11    14    34    1
    12    14     8    1
    13    14    10    1
    14    21     7    1
    15     3    13    1
    16     3     4    1
    17     3     2    1
    18    13    32    1
    19     8    15    1
    20     8     5    1
    21    10     6    1
    22    10    25    1
    23    37    15    1
    24     6     5    1
    25     6     9    1
    26    42     1    1
    27     1     9    1
    28     7    22    1
    29     7     4    1
    30     7    11    1
    31    15    38    1
    32    15    36    1
    33     5     2    1
    34     5    19    1
    35     4     2    1
    36     4    18    1
    37     2    17    1
    38     9    11    1
    39     9    16    1
    40    11    26    1
    41    11    27    1
    42    41    16    1
    43    16    39    1
    44    16    40    1
@<TRIPOS>MOLECULE
11996452_2_run_3.pdb
 42 44 0 0 0
SMALL
GASTEIGER

@<TRIPOS>ATOM
      1    O       26.5310    4.4680    3.3660 O.3     2  LIG2       -0.3886
      2    C       27.7230    0.3300    4.9550 C.3     2  LIG2       -0.0289
      3    C       27.9720   -0.4710    3.6890 C.3     2  LIG2       -0.0284
      4    C       26.5890    0.1030    3.9310 C.3     2  LIG2       -0.0319
      5    C       28.3190    1.7330    5.2970 C.3     2  LIG2       -0.0294
      6    C       28.0390    2.9770    4.4180 C.3     2  LIG2       -0.0090
      7    C       25.9890    1.2790    3.1300 C.3     2  LIG2       -0.0468
      8    C       29.8530    1.7060    5.4890 C.3     2  LIG2       -0.0404
      9    C       26.5650    3.5120    4.4150 C.3     2  LIG2        0.0664
     10    C       29.1170    3.9790    4.8800 C.3     2  LIG2       -0.0471
     11    C       25.5110    2.4310    4.0350 C.3     2  LIG2       -0.0237
     12    C       28.8630    0.0270    2.5290 C.3     2  LIG2       -0.0593
     13    C       28.1260   -1.9930    3.8790 C.3     2  LIG2       -0.0593
     14    C       30.3480    3.1430    5.2410 C.3     2  LIG2       -0.0498
     15    C       30.3020    1.1200    6.8400 C.3     2  LIG2       -0.0621
     16    C       26.1170    4.2350    5.7080 C.3     2  LIG2       -0.0358
     17    H       27.6640   -0.2590    5.8710 H       2  LIG2        0.0312
     18    H       25.8160   -0.6280    4.1750 H       2  LIG2        0.0309
     19    H       27.8910    1.9880    6.2690 H       2  LIG2        0.0310
     20    H       28.3060    2.7460    3.3920 H       2  LIG2        0.0331
     21    H       26.6430    1.6420    2.3390 H       2  LIG2        0.0269
     22    H       25.1150    0.8930    2.6050 H       2  LIG2        0.0269
     23    H       30.2910    1.0830    4.7080 H       2  LIG2        0.0301
     24    H       29.3490    4.7120    4.1050 H       2  LIG2        0.0269
     25    H       28.8000    4.5350    5.7610 H       2  LIG2        0.0269
     26    H       24.6400    2.9050    3.5780 H       2  LIG2        0.0293
     27    H       25.1140    1.9820    4.9480 H       2  LIG2        0.0293
     28    H       28.6000   -0.4850    1.6030 H       2  LIG2        0.0235
     29    H       29.9130   -0.1870    2.7290 H       2  LIG2        0.0235
     30    H       28.7950    1.0860    2.3160 H       2  LIG2        0.0235
     31    H       27.8570   -2.5330    2.9710 H       2  LIG2        0.0235
     32    H       27.4940   -2.3760    4.6810 H       2  LIG2        0.0235
     33    H       29.1560   -2.2520    4.1300 H       2  LIG2        0.0235
     34    H       30.8640    3.5640    6.1050 H       2  LIG2        0.0268
     35    H       31.0610    3.1540    4.4150 H       2  LIG2        0.0268
     36    H       29.9150    1.7040    7.6760 H       2  LIG2        0.0233
     37    H       31.3890    1.1070    6.9190 H       2  LIG2        0.0233
     38    H       29.9530    0.0930    6.9620 H       2  LIG2        0.0233
     39    H       26.2080    3.5890    6.5810 H       2  LIG2        0.0257
     40    H       25.0730    4.5470    5.6460 H       2  LIG2        0.0257
     41    H       26.6940    5.1380    5.9040 H       2  LIG2        0.0257
     42    H       27.1080    5.1980    3.6020 H       2  LIG2        0.2102
@<TRIPOS>BOND
     1    28    12    1
     2    30    12    1
     3    21     7    1
     4    12    29    1
     5    12     3    1
     6    22     7    1
     7    31    13    1
     8     7     4    1
     9     7    11    1
    10     1    42    1
    11     1     9    1
    12    20     6    1
    13    26    11    1
    14     3    13    1
    15     3     4    1
    16     3     2    1
    17    13    33    1
    18    13    32    1
    19     4    18    1
    20     4     2    1
    21    11     9    1
    22    11    27    1
    23    24    10    1
    24    35    14    1
    25     9     6    1
    26     9    16    1
    27     6    10    1
    28     6     5    1
    29    23     8    1
    30    10    14    1
    31    10    25    1
    32     2     5    1
    33     2    17    1
    34    14     8    1
    35    14    34    1
    36     5     8    1
    37     5    19    1
    38     8    15    1
    39    40    16    1
    40    16    41    1
    41    16    39    1
    42    15    37    1
    43    15    38    1
    44    15    36    1
@<TRIPOS>MOLECULE
11996452_2_run_2.pdb
 42 44 0 0 0
SMALL
GASTEIGER

@<TRIPOS>ATOM
      1    O       25.3330    1.7740    4.8550 O.3     2  LIG2       -0.3886
      2    C       29.9060    1.7630    4.4540 C.3     2  LIG2       -0.0289
      3    C       30.3800    2.0570    5.8660 C.3     2  LIG2       -0.0284
      4    C       29.5250    3.0870    5.1530 C.3     2  LIG2       -0.0319
      5    C       28.8700    0.6720    4.0310 C.3     2  LIG2       -0.0294
      6    C       27.4110    0.6830    4.5520 C.3     2  LIG2       -0.0090
      7    C       28.0590    3.3990    5.5250 C.3     2  LIG2       -0.0468
      8    C       29.3790   -0.7680    4.2740 C.3     2  LIG2       -0.0404
      9    C       26.5010    1.8590    4.0530 C.3     2  LIG2        0.0664
     10    C       26.9140   -0.7390    4.2230 C.3     2  LIG2       -0.0471
     11    C       27.1000    3.2690    4.3260 C.3     2  LIG2       -0.0237
     12    C       29.8660    1.3000    7.1110 C.3     2  LIG2       -0.0593
     13    C       31.8770    2.3920    6.0120 C.3     2  LIG2       -0.0593
     14    C       28.1280   -1.6610    4.3750 C.3     2  LIG2       -0.0498
     15    C       30.4030   -1.2510    3.2300 C.3     2  LIG2       -0.0621
     16    C       26.0500    1.7690    2.5760 C.3     2  LIG2       -0.0358
     17    H       30.6740    1.8350    3.6830 H       2  LIG2        0.0312
     18    H       30.0450    3.9960    4.8490 H       2  LIG2        0.0309
     19    H       28.7710    0.7860    2.9500 H       2  LIG2        0.0310
     20    H       27.4290    0.7200    5.6370 H       2  LIG2        0.0331
     21    H       27.7000    2.8330    6.3830 H       2  LIG2        0.0269
     22    H       28.0300    4.4380    5.8550 H       2  LIG2        0.0269
     23    H       29.8710   -0.8040    5.2470 H       2  LIG2        0.0301
     24    H       26.0990   -1.0470    4.8810 H       2  LIG2        0.0269
     25    H       26.5440   -0.8110    3.2010 H       2  LIG2        0.0269
     26    H       26.2970    4.0010    4.4310 H       2  LIG2        0.0293
     27    H       27.6430    3.6050    3.4400 H       2  LIG2        0.0293
     28    H       30.0190    1.8990    8.0090 H       2  LIG2        0.0235
     29    H       30.4130    0.3670    7.2490 H       2  LIG2        0.0235
     30    H       28.8140    1.0460    7.0950 H       2  LIG2        0.0235
     31    H       32.0600    3.0030    6.8970 H       2  LIG2        0.0235
     32    H       32.2640    2.9440    5.1550 H       2  LIG2        0.0235
     33    H       32.4740    1.4830    6.1050 H       2  LIG2        0.0235
     34    H       28.1130   -2.4490    3.6220 H       2  LIG2        0.0268
     35    H       28.1010   -2.1550    5.3460 H       2  LIG2        0.0268
     36    H       29.9760   -1.2590    2.2270 H       2  LIG2        0.0233
     37    H       30.7430   -2.2620    3.4550 H       2  LIG2        0.0233
     38    H       31.2830   -0.6070    3.2120 H       2  LIG2        0.0233
     39    H       26.9020    1.7300    1.8970 H       2  LIG2        0.0257
     40    H       25.4510    2.6350    2.2910 H       2  LIG2        0.0257
     41    H       25.4310    0.8930    2.3800 H       2  LIG2        0.0257
     42    H       25.5930    1.8320    5.7770 H       2  LIG2        0.2102
@<TRIPOS>BOND
     1    39    16    1
     2    36    15    1
     3    40    16    1
     4    41    16    1
     5    16     9    1
     6    19     5    1
     7    25    10    1
     8    38    15    1
     9    15    37    1
    10    15     8    1
    11    27    11    1
    12    34    14    1
    13    17     2    1
    14     5     8    1
    15     5     2    1
    16     5     6    1
    17     9    11    1
    18     9     6    1
    19     9     1    1
    20    10    14    1
    21    10     6    1
    22    10    24    1
    23     8    14    1
    24     8    23    1
    25    11    26    1
    26    11     7    1
    27    14    35    1
    28     2     4    1
    29     2     3    1
    30     6    20    1
    31    18     4    1
    32     1    42    1
    33     4     7    1
    34     4     3    1
    35    32    13    1
    36     7    22    1
    37     7    21    1
    38     3    13    1
    39     3    12    1
    40    13    33    1
    41    13    31    1
    42    30    12    1
    43    12    29    1
    44    12    28    1
@<TRIPOS>MOLECULE
11996452_2_run_19.pdb
 42 44 0 0 0
SMALL
GASTEIGER

@<TRIPOS>ATOM
      1    O       26.6760   -0.6620    3.4760 O.3     2  LIG2       -0.3886
      2    C       28.3860    3.5510    4.1040 C.3     2  LIG2       -0.0289
      3    C       27.2390    4.2990    4.7610 C.3     2  LIG2       -0.0284
      4    C       27.0370    3.7240    3.3720 C.3     2  LIG2       -0.0319
      5    C       28.9670    2.1690    4.5450 C.3     2  LIG2       -0.0294
      6    C       28.0990    0.8860    4.5630 C.3     2  LIG2       -0.0090
      7    C       26.1360    2.5090    3.0620 C.3     2  LIG2       -0.0468
      8    C       29.6510    2.2170    5.9300 C.3     2  LIG2       -0.0404
      9    C       27.6340    0.3390    3.1680 C.3     2  LIG2        0.0664
     10    C       28.9340   -0.0860    5.4220 C.3     2  LIG2       -0.0471
     11    C       26.8820    1.3940    2.3050 C.3     2  LIG2       -0.0237
     12    C       26.4600    3.7580    5.9810 C.3     2  LIG2       -0.0593
     13    C       27.4030    5.8280    4.8540 C.3     2  LIG2       -0.0593
     14    C       29.6430    0.7750    6.4710 C.3     2  LIG2       -0.0498
     15    C       31.0480    2.8650    5.9130 C.3     2  LIG2       -0.0621
     16    C       28.7380   -0.3310    2.3150 C.3     2  LIG2       -0.0358
     17    H       29.2050    4.1790    3.7500 H       2  LIG2        0.0312
     18    H       26.9810    4.4590    2.5670 H       2  LIG2        0.0309
     19    H       29.7530    1.9530    3.8190 H       2  LIG2        0.0310
     20    H       27.2090    1.0750    5.1540 H       2  LIG2        0.0331
     21    H       25.6200    2.1180    3.9370 H       2  LIG2        0.0269
     22    H       25.3360    2.8650    2.4120 H       2  LIG2        0.0269
     23    H       29.0320    2.8100    6.6050 H       2  LIG2        0.0301
     24    H       28.3110   -0.8490    5.8910 H       2  LIG2        0.0269
     25    H       29.6850   -0.6060    4.8290 H       2  LIG2        0.0269
     26    H       26.1850    0.8930    1.6300 H       2  LIG2        0.0293
     27    H       27.5930    1.8780    1.6320 H       2  LIG2        0.0293
     28    H       25.4780    4.2270    6.0410 H       2  LIG2        0.0235
     29    H       26.9850    3.9900    6.9080 H       2  LIG2        0.0235
     30    H       26.2830    2.6910    5.9800 H       2  LIG2        0.0235
     31    H       26.4340    6.3260    4.9020 H       2  LIG2        0.0235
     32    H       27.9350    6.2410    3.9950 H       2  LIG2        0.0235
     33    H       27.9680    6.1070    5.7450 H       2  LIG2        0.0235
     34    H       30.6460    0.3960    6.6710 H       2  LIG2        0.0268
     35    H       29.0990    0.7350    7.4160 H       2  LIG2        0.0268
     36    H       31.7350    2.3150    5.2690 H       2  LIG2        0.0233
     37    H       31.4800    2.8910    6.9140 H       2  LIG2        0.0233
     38    H       31.0030    3.8930    5.5500 H       2  LIG2        0.0233
     39    H       29.5630    0.3530    2.1170 H       2  LIG2        0.0257
     40    H       28.3490   -0.6540    1.3480 H       2  LIG2        0.0257
     41    H       29.1520   -1.2200    2.7900 H       2  LIG2        0.0257
     42    H       26.4140   -1.0930    2.6590 H       2  LIG2        0.2102
@<TRIPOS>BOND
     1    40    16    1
     2    26    11    1
     3    27    11    1
     4    39    16    1
     5    11     7    1
     6    11     9    1
     7    16    41    1
     8    16     9    1
     9    22     7    1
    10    18     4    1
    11    42     1    1
    12     7     4    1
    13     7    21    1
    14     9     1    1
    15     9     6    1
    16     4     2    1
    17     4     3    1
    18    17     2    1
    19    19     5    1
    20    32    13    1
    21     2     5    1
    22     2     3    1
    23     5     6    1
    24     5     8    1
    25     6    20    1
    26     6    10    1
    27     3    13    1
    28     3    12    1
    29    25    10    1
    30    13    31    1
    31    13    33    1
    32    36    15    1
    33    10    24    1
    34    10    14    1
    35    38    15    1
    36    15     8    1
    37    15    37    1
    38     8    14    1
    39     8    23    1
    40    30    12    1
    41    12    28    1
    42    12    29    1
    43    14    34    1
    44    14    35    1
@<TRIPOS>MOLECULE
11996452_2_run_2.pdb
 42 44 0 0 0
SMALL
GASTEIGER

@<TRIPOS>ATOM
      1    O       28.8770    0.0320    2.9980 O.3     2  LIG2       -0.3886
      2    C       27.3610    3.7410    5.2370 C.3     2  LIG2       -0.0289
      3    C       27.9290    4.8940    4.4270 C.3     2  LIG2       -0.0284
      4    C       28.8870    3.9130    5.0760 C.3     2  LIG2       -0.0319
      5    C       26.5580    2.5220    4.6800 C.3     2  LIG2       -0.0294
      6    C       27.1720    1.5390    3.6530 C.3     2  LIG2       -0.0090
      7    C       29.7280    2.8810    4.2930 C.3     2  LIG2       -0.0468
      8    C       25.1860    2.9230    4.0890 C.3     2  LIG2       -0.0404
      9    C       28.3470    0.6350    4.1680 C.3     2  LIG2        0.0664
     10    C       25.9390    0.7910    3.1060 C.3     2  LIG2       -0.0471
     11    C       29.5210    1.4400    4.7980 C.3     2  LIG2       -0.0237
     12    C       27.7960    5.0000    2.8920 C.3     2  LIG2       -0.0593
     13    C       27.8250    6.2860    5.0810 C.3     2  LIG2       -0.0593
     14    C       24.7920    1.8060    3.1050 C.3     2  LIG2       -0.0498
     15    C       24.1120    3.2190    5.1530 C.3     2  LIG2       -0.0621
     16    C       27.9340   -0.5080    5.1260 C.3     2  LIG2       -0.0358
     17    H       26.9490    4.0170    6.2090 H       2  LIG2        0.0312
     18    H       29.4520    4.3040    5.9240 H       2  LIG2        0.0309
     19    H       26.3480    1.9030    5.5540 H       2  LIG2        0.0310
     20    H       27.5430    2.1060    2.8050 H       2  LIG2        0.0331
     21    H       29.5980    2.9460    3.2150 H       2  LIG2        0.0269
     22    H       30.7750    3.1360    4.4560 H       2  LIG2        0.0269
     23    H       25.3120    3.8320    3.5000 H       2  LIG2        0.0301
     24    H       26.1160    0.3930    2.1050 H       2  LIG2        0.0269
     25    H       25.6620   -0.0500    3.7400 H       2  LIG2        0.0269
     26    H       30.4540    0.8850    4.6860 H       2  LIG2        0.0293
     27    H       29.3780    1.4930    5.8800 H       2  LIG2        0.0293
     28    H       28.5730    5.6510    2.4890 H       2  LIG2        0.0235
     29    H       26.8360    5.4360    2.6160 H       2  LIG2        0.0235
     30    H       27.8800    4.0650    2.3550 H       2  LIG2        0.0235
     31    H       28.5990    6.9550    4.7060 H       2  LIG2        0.0235
     32    H       27.9330    6.2430    6.1660 H       2  LIG2        0.0235
     33    H       26.8560    6.7430    4.8730 H       2  LIG2        0.0235
     34    H       23.8490    1.3260    3.3690 H       2  LIG2        0.0268
     35    H       24.6630    2.2210    2.1040 H       2  LIG2        0.0268
     36    H       23.9160    2.3460    5.7750 H       2  LIG2        0.0233
     37    H       23.1710    3.5130    4.6880 H       2  LIG2        0.0233
     38    H       24.4210    4.0340    5.8100 H       2  LIG2        0.0233
     39    H       27.4280   -0.1260    6.0130 H       2  LIG2        0.0257
     40    H       28.8050   -1.0700    5.4700 H       2  LIG2        0.0257
     41    H       27.2710   -1.2320    4.6530 H       2  LIG2        0.0257
     42    H       28.2130   -0.5560    2.6320 H       2  LIG2        0.2102
@<TRIPOS>BOND
     1    35    14    1
     2    24    10    1
     3    30    12    1
     4    28    12    1
     5    29    12    1
     6    42     1    1
     7    20     6    1
     8    12     3    1
     9     1     9    1
    10    14    10    1
    11    14    34    1
    12    14     8    1
    13    10     6    1
    14    10    25    1
    15    21     7    1
    16    23     8    1
    17     6     9    1
    18     6     5    1
    19     8     5    1
    20     8    15    1
    21     9    11    1
    22     9    16    1
    23     7    22    1
    24     7    11    1
    25     7     4    1
    26     3     4    1
    27     3    13    1
    28     3     2    1
    29    41    16    1
    30     5     2    1
    31     5    19    1
    32    26    11    1
    33    37    15    1
    34    31    13    1
    35    11    27    1
    36    33    13    1
    37     4     2    1
    38     4    18    1
    39    13    32    1
    40    16    40    1
    41    16    39    1
    42    15    36    1
    43    15    38    1
    44     2    17    1
@<TRIPOS>MOLECULE
11996452_2_run_11.pdb
 42 44 0 0 0
SMALL
GASTEIGER

@<TRIPOS>ATOM
      1    O       26.8370    5.8240    5.9890 O.3     2  LIG2       -0.3886
      2    C       27.6680    2.1710    3.3360 C.3     2  LIG2       -0.0289
      3    C       28.5580    1.3020    4.2080 C.3     2  LIG2       -0.0284
      4    C       29.0390    2.6880    3.8220 C.3     2  LIG2       -0.0319
      5    C       26.3010    2.8070    3.7490 C.3     2  LIG2       -0.0294
      6    C       26.1880    3.8130    4.9210 C.3     2  LIG2       -0.0090
      7    C       29.1420    3.8720    4.8080 C.3     2  LIG2       -0.0468
      8    C       25.2000    1.7540    4.0090 C.3     2  LIG2       -0.0404
      9    C       26.8690    5.2100    4.7090 C.3     2  LIG2        0.0664
     10    C       24.6740    3.8410    5.2110 C.3     2  LIG2       -0.0471
     11    C       28.3740    5.1170    4.3230 C.3     2  LIG2       -0.0237
     12    C       28.2220    0.9410    5.6720 C.3     2  LIG2       -0.0593
     13    C       29.2380    0.1170    3.4970 C.3     2  LIG2       -0.0593
     14    C       24.1600    2.4270    4.9230 C.3     2  LIG2       -0.0498
     15    C       24.5990    1.1510    2.7250 C.3     2  LIG2       -0.0621
     16    C       26.1450    6.1610    3.7270 C.3     2  LIG2       -0.0358
     17    H       27.6130    1.8730    2.2890 H       2  LIG2        0.0312
     18    H       29.8620    2.7140    3.1050 H       2  LIG2        0.0309
     19    H       25.9840    3.3760    2.8730 H       2  LIG2        0.0310
     20    H       26.6260    3.3660    5.8080 H       2  LIG2        0.0331
     21    H       28.8700    3.6110    5.8290 H       2  LIG2        0.0269
     22    H       30.1970    4.1430    4.8700 H       2  LIG2        0.0269
     23    H       25.6330    0.9290    4.5770 H       2  LIG2        0.0301
     24    H       24.4630    4.1370    6.2400 H       2  LIG2        0.0269
     25    H       24.1510    4.5430    4.5630 H       2  LIG2        0.0269
     26    H       28.9010    6.0130    4.6580 H       2  LIG2        0.0293
     27    H       28.4680    5.1520    3.2360 H       2  LIG2        0.0293
     28    H       29.1280    0.6640    6.2110 H       2  LIG2        0.0235
     29    H       27.5480    0.0850    5.7140 H       2  LIG2        0.0235
     30    H       27.7590    1.7310    6.2480 H       2  LIG2        0.0235
     31    H       30.1570   -0.1740    4.0070 H       2  LIG2        0.0235
     32    H       29.5040    0.3500    2.4650 H       2  LIG2        0.0235
     33    H       28.5800   -0.7530    3.4710 H       2  LIG2        0.0235
     34    H       23.1650    2.4590    4.4760 H       2  LIG2        0.0268
     35    H       24.0660    1.8680    5.8550 H       2  LIG2        0.0268
     36    H       24.1290    1.9160    2.1080 H       2  LIG2        0.0233
     37    H       23.8420    0.4030    2.9610 H       2  LIG2        0.0233
     38    H       25.3650    0.6600    2.1220 H       2  LIG2        0.0233
     39    H       26.0430    5.7150    2.7380 H       2  LIG2        0.0257
     40    H       26.6930    7.0960    3.6040 H       2  LIG2        0.0257
     41    H       25.1470    6.4360    4.0700 H       2  LIG2        0.0257
     42    H       27.1930    6.7120    5.9090 H       2  LIG2        0.2102
@<TRIPOS>BOND
     1    36    15    1
     2    38    15    1
     3    17     2    1
     4    32    13    1
     5    15    37    1
     6    15     8    1
     7    39    16    1
     8    19     5    1
     9    18     4    1
    10    27    11    1
    11     2     5    1
    12     2     4    1
    13     2     3    1
    14    33    13    1
    15    13    31    1
    16    13     3    1
    17    40    16    1
    18    16    41    1
    19    16     9    1
    20     5     8    1
    21     5     6    1
    22     4     3    1
    23     4     7    1
    24     8    23    1
    25     8    14    1
    26     3    12    1
    27    11    26    1
    28    11     9    1
    29    11     7    1
    30    34    14    1
    31    25    10    1
    32     9     6    1
    33     9     1    1
    34     7    22    1
    35     7    21    1
    36     6    10    1
    37     6    20    1
    38    14    10    1
    39    14    35    1
    40    10    24    1
    41    12    29    1
    42    12    28    1
    43    12    30    1
    44    42     1    1
@<TRIPOS>MOLECULE
11996452_2_run_3.pdb
 42 44 0 0 0
SMALL
GASTEIGER

@<TRIPOS>ATOM
      1    O       28.0050   -0.1930    4.7850 O.3     2  LIG2       -0.3886
      2    C       25.7310    3.5110    3.3090 C.3     2  LIG2       -0.0289
      3    C       24.5960    3.6450    4.3100 C.3     2  LIG2       -0.0284
      4    C       24.6870    2.3850    3.4710 C.3     2  LIG2       -0.0319
      5    C       27.2490    3.3460    3.6430 C.3     2  LIG2       -0.0294
      6    C       27.7810    2.1400    4.4560 C.3     2  LIG2       -0.0090
      7    C       25.0860    1.0020    4.0310 C.3     2  LIG2       -0.0468
      8    C       27.8550    4.5960    4.3240 C.3     2  LIG2       -0.0404
      9    C       27.6980    0.7380    3.7580 C.3     2  LIG2        0.0664
     10    C       29.1920    2.6000    4.8760 C.3     2  LIG2       -0.0471
     11    C       26.2670    0.3700    3.2690 C.3     2  LIG2       -0.0237
     12    C       24.8050    3.6160    5.8410 C.3     2  LIG2       -0.0593
     13    C       23.4850    4.6430    3.9310 C.3     2  LIG2       -0.0593
     14    C       29.1020    4.1130    5.0890 C.3     2  LIG2       -0.0498
     15    C       28.1340    5.7590    3.3550 C.3     2  LIG2       -0.0621
     16    C       28.7090    0.5050    2.6110 C.3     2  LIG2       -0.0358
     17    H       25.6340    4.1270    2.4140 H       2  LIG2        0.0312
     18    H       23.9210    2.2800    2.7020 H       2  LIG2        0.0309
     19    H       27.7390    3.2560    2.6720 H       2  LIG2        0.0310
     20    H       27.2290    2.0760    5.3880 H       2  LIG2        0.0331
     21    H       25.2630    1.0040    5.1050 H       2  LIG2        0.0269
     22    H       24.2250    0.3460    3.9000 H       2  LIG2        0.0269
     23    H       27.1490    4.9630    5.0710 H       2  LIG2        0.0301
     24    H       29.5320    2.0920    5.7810 H       2  LIG2        0.0269
     25    H       29.9300    2.3980    4.1000 H       2  LIG2        0.0269
     26    H       26.1440   -0.7150    3.2580 H       2  LIG2        0.0293
     27    H       26.1630    0.6540    2.2190 H       2  LIG2        0.0293
     28    H       23.8790    3.3380    6.3440 H       2  LIG2        0.0235
     29    H       25.0900    4.6010    6.2110 H       2  LIG2        0.0235
     30    H       25.5570    2.9210    6.1910 H       2  LIG2        0.0235
     31    H       22.5410    4.3820    4.4100 H       2  LIG2        0.0235
     32    H       23.3030    4.6720    2.8560 H       2  LIG2        0.0235
     33    H       23.7480    5.6560    4.2400 H       2  LIG2        0.0235
     34    H       30.0150    4.6080    4.7560 H       2  LIG2        0.0268
     35    H       28.9950    4.3340    6.1510 H       2  LIG2        0.0268
     36    H       28.8490    5.4730    2.5830 H       2  LIG2        0.0233
     37    H       28.5430    6.6200    3.8840 H       2  LIG2        0.0233
     38    H       27.2200    6.0870    2.8570 H       2  LIG2        0.0233
     39    H       28.5990    1.2480    1.8210 H       2  LIG2        0.0257
     40    H       28.5690   -0.4750    2.1520 H       2  LIG2        0.0257
     41    H       29.7440    0.5360    2.9520 H       2  LIG2        0.0257
     42    H       27.3350   -0.1230    5.4690 H       2  LIG2        0.2102
@<TRIPOS>BOND
     1    39    16    1
     2    40    16    1
     3    27    11    1
     4    17     2    1
     5    36    15    1
     6    16    41    1
     7    16     9    1
     8    19     5    1
     9    18     4    1
    10    32    13    1
    11    38    15    1
    12    26    11    1
    13    11     9    1
    14    11     7    1
    15     2     4    1
    16     2     5    1
    17     2     3    1
    18    15    37    1
    19    15     8    1
    20     4     7    1
    21     4     3    1
    22     5     8    1
    23     5     6    1
    24     9     6    1
    25     9     1    1
    26    22     7    1
    27    13    33    1
    28    13     3    1
    29    13    31    1
    30     7    21    1
    31    25    10    1
    32     3    12    1
    33     8    23    1
    34     8    14    1
    35     6    10    1
    36     6    20    1
    37    34    14    1
    38     1    42    1
    39    10    14    1
    40    10    24    1
    41    14    35    1
    42    12    30    1
    43    12    29    1
    44    12    28    1
@<TRIPOS>MOLECULE
11996452_2_run_24.pdb
 42 44 0 0 0
SMALL
GASTEIGER

@<TRIPOS>ATOM
      1    O       25.5690    1.3050    2.0160 O.3     2  LIG2       -0.3886
      2    C       28.2240    2.4360    5.5860 C.3     2  LIG2       -0.0289
      3    C       29.5470    1.7630    5.2630 C.3     2  LIG2       -0.0284
      4    C       28.3100    0.9010    5.4370 C.3     2  LIG2       -0.0319
      5    C       27.3960    3.3580    4.6340 C.3     2  LIG2       -0.0294
      6    C       26.8430    2.8490    3.2790 C.3     2  LIG2       -0.0090
      7    C       27.5970    0.1700    4.2780 C.3     2  LIG2       -0.0468
      8    C       28.1150    4.6870    4.3060 C.3     2  LIG2       -0.0404
      9    C       25.7100    1.7660    3.3510 C.3     2  LIG2        0.0664
     10    C       26.4800    4.1530    2.5400 C.3     2  LIG2       -0.0471
     11    C       26.0980    0.5150    4.1920 C.3     2  LIG2       -0.0237
     12    C       30.2570    1.8930    3.8970 C.3     2  LIG2       -0.0593
     13    C       30.5750    1.7250    6.4110 C.3     2  LIG2       -0.0593
     14    C       27.5120    5.1950    2.9830 C.3     2  LIG2       -0.0498
     15    C       28.0650    5.7200    5.4470 C.3     2  LIG2       -0.0621
     16    C       24.3250    2.2830    3.8060 C.3     2  LIG2       -0.0358
     17    H       28.1330    2.8130    6.6050 H       2  LIG2        0.0312
     18    H       28.2870    0.2950    6.3440 H       2  LIG2        0.0309
     19    H       26.5060    3.6220    5.2070 H       2  LIG2        0.0310
     20    H       27.6620    2.4290    2.7040 H       2  LIG2        0.0331
     21    H       28.0900    0.3000    3.3160 H       2  LIG2        0.0269
     22    H       27.6750   -0.8980    4.4810 H       2  LIG2        0.0269
     23    H       29.1680    4.4760    4.1120 H       2  LIG2        0.0301
     24    H       26.4920    4.0220    1.4560 H       2  LIG2        0.0269
     25    H       25.4860    4.5070    2.8090 H       2  LIG2        0.0269
     26    H       25.5510   -0.3590    3.8320 H       2  LIG2        0.0293
     27    H       25.7360    0.6450    5.2140 H       2  LIG2        0.0293
     28    H       30.9420    1.0590    3.7460 H       2  LIG2        0.0235
     29    H       30.8480    2.8080    3.8550 H       2  LIG2        0.0235
     30    H       29.6020    1.9050    3.0360 H       2  LIG2        0.0235
     31    H       31.2670    0.8910    6.2920 H       2  LIG2        0.0235
     32    H       30.1020    1.6150    7.3870 H       2  LIG2        0.0235
     33    H       31.1620    2.6450    6.4390 H       2  LIG2        0.0235
     34    H       27.0520    6.1790    3.0820 H       2  LIG2        0.0268
     35    H       28.2940    5.2890    2.2290 H       2  LIG2        0.0268
     36    H       27.0380    5.9970    5.6890 H       2  LIG2        0.0233
     37    H       28.5990    6.6310    5.1750 H       2  LIG2        0.0233
     38    H       28.5270    5.3300    6.3550 H       2  LIG2        0.0233
     39    H       24.3720    2.7440    4.7930 H       2  LIG2        0.0257
     40    H       23.5990    1.4700    3.8660 H       2  LIG2        0.0257
     41    H       23.9050    3.0170    3.1190 H       2  LIG2        0.0257
     42    H       26.3830    0.8670    1.7580 H       2  LIG2        0.2102
@<TRIPOS>BOND
     1    24    10    1
     2    42     1    1
     3     1     9    1
     4    35    14    1
     5    10    25    1
     6    10    14    1
     7    10     6    1
     8    20     6    1
     9    14    34    1
    10    14     8    1
    11    30    12    1
    12    41    16    1
    13     6     9    1
    14     6     5    1
    15    21     7    1
    16     9    16    1
    17     9    11    1
    18    28    12    1
    19    16    40    1
    20    16    39    1
    21    26    11    1
    22    29    12    1
    23    12     3    1
    24    23     8    1
    25    11     7    1
    26    11    27    1
    27     7    22    1
    28     7     4    1
    29     8     5    1
    30     8    15    1
    31     5    19    1
    32     5     2    1
    33    37    15    1
    34     3     4    1
    35     3     2    1
    36     3    13    1
    37     4     2    1
    38     4    18    1
    39    15    36    1
    40    15    38    1
    41     2    17    1
    42    31    13    1
    43    13    33    1
    44    13    32    1
@<TRIPOS>MOLECULE
11996452_2_run_3.pdb
 42 44 0 0 0
SMALL
GASTEIGER

@<TRIPOS>ATOM
      1    O       28.0990   -0.1550    1.9870 O.3     2  LIG2       -0.3886
      2    C       28.9910    1.6370    6.1180 C.3     2  LIG2       -0.0289
      3    C       30.4610    2.0120    6.0250 C.3     2  LIG2       -0.0284
      4    C       30.0650    0.5560    5.8610 C.3     2  LIG2       -0.0319
      5    C       27.8720    2.0130    5.0940 C.3     2  LIG2       -0.0294
      6    C       27.9280    1.5540    3.6160 C.3     2  LIG2       -0.0090
      7    C       30.1220   -0.2090    4.5210 C.3     2  LIG2       -0.0468
      8    C       27.5910    3.5320    5.0390 C.3     2  LIG2       -0.0404
      9    C       27.7650    0.0160    3.3560 C.3     2  LIG2        0.0664
     10    C       26.8910    2.4660    2.9290 C.3     2  LIG2       -0.0471
     11    C       28.7760   -0.8610    4.1510 C.3     2  LIG2       -0.0237
     12    C       31.0590    2.8240    4.8550 C.3     2  LIG2       -0.0593
     13    C       31.1390    2.3920    7.3560 C.3     2  LIG2       -0.0593
     14    C       26.9490    3.8070    3.6660 C.3     2  LIG2       -0.0498
     15    C       26.7630    4.0560    6.2270 C.3     2  LIG2       -0.0621
     16    C       26.3350   -0.5430    3.5510 C.3     2  LIG2       -0.0358
     17    H       28.5700    1.6620    7.1230 H       2  LIG2        0.0312
     18    H       30.3410   -0.0990    6.6890 H       2  LIG2        0.0309
     19    H       26.9670    1.5460    5.4880 H       2  LIG2        0.0310
     20    H       28.8800    1.8590    3.1920 H       2  LIG2        0.0331
     21    H       30.5140    0.3870    3.6990 H       2  LIG2        0.0269
     22    H       30.8500   -1.0110    4.6450 H       2  LIG2        0.0269
     23    H       28.5440    4.0640    5.0530 H       2  LIG2        0.0301
     24    H       27.1000    2.5890    1.8650 H       2  LIG2        0.0269
     25    H       25.8820    2.0640    3.0120 H       2  LIG2        0.0269
     26    H       28.9670   -1.7910    3.6110 H       2  LIG2        0.0293
     27    H       28.3090   -1.1910    5.0810 H       2  LIG2        0.0293
     28    H       32.1320    2.6470    4.7810 H       2  LIG2        0.0235
     29    H       30.9190    3.8930    5.0160 H       2  LIG2        0.0235
     30    H       30.6490    2.5990    3.8790 H       2  LIG2        0.0235
     31    H       32.2130    2.2130    7.3150 H       2  LIG2        0.0235
     32    H       30.7480    1.8200    8.1980 H       2  LIG2        0.0235
     33    H       30.9840    3.4480    7.5850 H       2  LIG2        0.0235
     34    H       25.9550    4.2480    3.7480 H       2  LIG2        0.0268
     35    H       27.5600    4.5150    3.1040 H       2  LIG2        0.0268
     36    H       25.7830    3.5810    6.2700 H       2  LIG2        0.0233
     37    H       26.6070    5.1330    6.1510 H       2  LIG2        0.0233
     38    H       27.2680    3.8660    7.1750 H       2  LIG2        0.0233
     39    H       25.9680   -0.3610    4.5610 H       2  LIG2        0.0257
     40    H       26.3060   -1.6220    3.3880 H       2  LIG2        0.0257
     41    H       25.6170   -0.1100    2.8550 H       2  LIG2        0.0257
     42    H       27.8050   -1.0260    1.7090 H       2  LIG2        0.2102
@<TRIPOS>BOND
     1    42     1    1
     2    24    10    1
     3     1     9    1
     4    41    16    1
     5    10    25    1
     6    10     6    1
     7    10    14    1
     8    35    14    1
     9    20     6    1
    10     9    16    1
    11     9     6    1
    12     9    11    1
    13    40    16    1
    14    16    39    1
    15    26    11    1
    16     6     5    1
    17    14    34    1
    18    14     8    1
    19    21     7    1
    20    30    12    1
    21    11     7    1
    22    11    27    1
    23     7    22    1
    24     7     4    1
    25    28    12    1
    26    12    29    1
    27    12     3    1
    28     8    23    1
    29     8     5    1
    30     8    15    1
    31     5    19    1
    32     5     2    1
    33     4     3    1
    34     4     2    1
    35     4    18    1
    36     3     2    1
    37     3    13    1
    38     2    17    1
    39    37    15    1
    40    15    36    1
    41    15    38    1
    42    31    13    1
    43    13    33    1
    44    13    32    1
@<TRIPOS>MOLECULE
11996452_2_run_10.pdb
 42 44 0 0 0
SMALL
GASTEIGER

@<TRIPOS>ATOM
      1    O       23.3490    3.2250    2.8840 O.3     2  LIG2       -0.3886
      2    C       27.3470    3.2670    5.1380 C.3     2  LIG2       -0.0289
      3    C       28.2950    2.5660    4.1800 C.3     2  LIG2       -0.0284
      4    C       27.0940    1.8050    4.7100 C.3     2  LIG2       -0.0319
      5    C       26.3900    4.4540    4.7940 C.3     2  LIG2       -0.0294
      6    C       25.2690    4.3190    3.7340 C.3     2  LIG2       -0.0090
      7    C       25.8660    1.4260    3.8540 C.3     2  LIG2       -0.0468
      8    C       27.1460    5.7510    4.4240 C.3     2  LIG2       -0.0404
      9    C       24.0830    3.3560    4.0920 C.3     2  LIG2        0.0664
     10    C       24.8820    5.7840    3.4480 C.3     2  LIG2       -0.0471
     11    C       24.5400    1.9170    4.4670 C.3     2  LIG2       -0.0237
     12    C       28.4220    2.9380    2.6860 C.3     2  LIG2       -0.0593
     13    C       29.6670    2.1750    4.7630 C.3     2  LIG2       -0.0593
     14    C       26.1720    6.5990    3.5850 C.3     2  LIG2       -0.0498
     15    C       27.7320    6.4980    5.6360 C.3     2  LIG2       -0.0621
     16    C       23.1030    3.8810    5.1680 C.3     2  LIG2       -0.0358
     17    H       27.7320    3.4090    6.1480 H       2  LIG2        0.0312
     18    H       27.3220    1.0140    5.4260 H       2  LIG2        0.0309
     19    H       25.8580    4.6610    5.7240 H       2  LIG2        0.0310
     20    H       25.7070    3.9680    2.8050 H       2  LIG2        0.0331
     21    H       25.9560    1.7240    2.8110 H       2  LIG2        0.0269
     22    H       25.8260    0.3360    3.8220 H       2  LIG2        0.0269
     23    H       27.9820    5.4930    3.7720 H       2  LIG2        0.0301
     24    H       24.4440    5.9020    2.4550 H       2  LIG2        0.0269
     25    H       24.1540    6.1580    4.1660 H       2  LIG2        0.0269
     26    H       23.7510    1.2010    4.2280 H       2  LIG2        0.0293
     27    H       24.6380    1.8440    5.5520 H       2  LIG2        0.0293
     28    H       28.8330    2.1010    2.1210 H       2  LIG2        0.0235
     29    H       29.1020    3.7800    2.5530 H       2  LIG2        0.0235
     30    H       27.4950    3.2050    2.1960 H       2  LIG2        0.0235
     31    H       30.0970    1.3300    4.2250 H       2  LIG2        0.0235
     32    H       29.6040    1.8900    5.8140 H       2  LIG2        0.0235
     33    H       30.3700    3.0070    4.6970 H       2  LIG2        0.0235
     34    H       25.9700    7.5730    4.0320 H       2  LIG2        0.0268
     35    H       26.5990    6.7900    2.5990 H       2  LIG2        0.0268
     36    H       26.9500    6.8060    6.3310 H       2  LIG2        0.0233
     37    H       28.2690    7.3930    5.3230 H       2  LIG2        0.0233
     38    H       28.4360    5.8700    6.1850 H       2  LIG2        0.0233
     39    H       23.6150    4.1000    6.1050 H       2  LIG2        0.0257
     40    H       22.3270    3.1460    5.3890 H       2  LIG2        0.0257
     41    H       22.5840    4.7870    4.8560 H       2  LIG2        0.0257
     42    H       22.5790    2.6790    3.0540 H       2  LIG2        0.2102
@<TRIPOS>BOND
     1    28    12    1
     2    30    12    1
     3    24    10    1
     4    29    12    1
     5    35    14    1
     6    12     3    1
     7    20     6    1
     8    21     7    1
     9     1    42    1
    10     1     9    1
    11    10    14    1
    12    10     6    1
    13    10    25    1
    14    14    34    1
    15    14     8    1
    16     6     9    1
    17     6     5    1
    18    23     8    1
    19    22     7    1
    20     7    11    1
    21     7     4    1
    22     9    11    1
    23     9    16    1
    24     3     4    1
    25     3    13    1
    26     3     2    1
    27    31    13    1
    28    26    11    1
    29     8     5    1
    30     8    15    1
    31    11    27    1
    32    33    13    1
    33     4     2    1
    34     4    18    1
    35    13    32    1
    36     5     2    1
    37     5    19    1
    38    41    16    1
    39     2    17    1
    40    16    40    1
    41    16    39    1
    42    37    15    1
    43    15    38    1
    44    15    36    1
