@<TRIPOS>MOLECULE
11996452_7_run_13.pdb
 42 44 0 0 0
SMALL
GASTEIGER

@<TRIPOS>ATOM
      1    O       29.1950    1.4480    2.8930 O.3     2  LIG2       -0.3886
      2    C       27.5530    3.6860    3.9080 C.3     2  LIG2       -0.0289
      3    C       27.7120    4.9000    4.8140 C.3     2  LIG2       -0.0284
      4    C       28.8100    3.8650    4.7680 C.3     2  LIG2       -0.0319
      5    C       26.5900    2.5030    4.2240 C.3     2  LIG2       -0.0294
      6    C       27.1740    1.0460    4.1830 C.3     2  LIG2       -0.0090
      7    C       29.0700    2.8080    5.8550 C.3     2  LIG2       -0.0468
      8    C       25.3520    2.5120    3.2920 C.3     2  LIG2       -0.0404
      9    C       28.7290    0.8380    4.0870 C.3     2  LIG2        0.0664
     10    C       26.3420    0.3220    3.1060 C.3     2  LIG2       -0.0471
     11    C       29.5250    1.4460    5.2870 C.3     2  LIG2       -0.0237
     12    C       27.9880    6.2420    4.1110 C.3     2  LIG2       -0.0593
     13    C       26.8580    5.0920    6.0890 C.3     2  LIG2       -0.0593
     14    C       24.9950    1.0400    3.0810 C.3     2  LIG2       -0.0498
     15    C       24.1880    3.3640    3.8270 C.3     2  LIG2       -0.0621
     16    C       29.1060   -0.6590    3.9660 C.3     2  LIG2       -0.0358
     17    H       27.6940    3.8220    2.8340 H       2  LIG2        0.0312
     18    H       29.7370    4.1660    4.2780 H       2  LIG2        0.0309
     19    H       26.2190    2.6170    5.2410 H       2  LIG2        0.0310
     20    H       26.8890    0.5730    5.1260 H       2  LIG2        0.0331
     21    H       29.8320    3.1830    6.5390 H       2  LIG2        0.0269
     22    H       28.1900    2.6420    6.4730 H       2  LIG2        0.0269
     23    H       25.6340    2.9060    2.3130 H       2  LIG2        0.0301
     24    H       26.8230    0.3930    2.1290 H       2  LIG2        0.0269
     25    H       26.2150   -0.7380    3.3280 H       2  LIG2        0.0269
     26    H       30.5840    1.5060    5.0300 H       2  LIG2        0.0293
     27    H       29.4810    0.7460    6.1230 H       2  LIG2        0.0293
     28    H       28.5200    6.9280    4.7700 H       2  LIG2        0.0235
     29    H       27.0580    6.7230    3.8060 H       2  LIG2        0.0235
     30    H       28.5970    6.1180    3.2140 H       2  LIG2        0.0235
     31    H       27.3490    5.7790    6.7780 H       2  LIG2        0.0235
     32    H       26.6680    4.1790    6.6480 H       2  LIG2        0.0235
     33    H       25.8850    5.5170    5.8380 H       2  LIG2        0.0235
     34    H       24.3520    0.6730    3.8840 H       2  LIG2        0.0268
     35    H       24.4720    0.8730    2.1380 H       2  LIG2        0.0268
     36    H       23.8420    3.0080    4.7990 H       2  LIG2        0.0233
     37    H       23.3370    3.3380    3.1450 H       2  LIG2        0.0233
     38    H       24.4850    4.4060    3.9430 H       2  LIG2        0.0233
     39    H       28.7400   -1.2290    4.8210 H       2  LIG2        0.0257
     40    H       30.1870   -0.8000    3.9180 H       2  LIG2        0.0257
     41    H       28.6880   -1.1180    3.0690 H       2  LIG2        0.0257
     42    H       30.1480    1.3500    2.8550 H       2  LIG2        0.2102
@<TRIPOS>BOND
     1    24    10    1
     2    35    14    1
     3    23     8    1
     4    17     2    1
     5    42     1    1
     6     1     9    1
     7    41    16    1
     8    14    10    1
     9    14     8    1
    10    14    34    1
    11    10    25    1
    12    10     6    1
    13    37    15    1
    14    30    12    1
    15     8    15    1
    16     8     5    1
    17    29    12    1
    18    15    38    1
    19    15    36    1
    20     2     5    1
    21     2     4    1
    22     2     3    1
    23    40    16    1
    24    16     9    1
    25    16    39    1
    26     9     6    1
    27     9    11    1
    28    12    28    1
    29    12     3    1
    30     6     5    1
    31     6    20    1
    32     5    19    1
    33    18     4    1
    34     4     3    1
    35     4     7    1
    36     3    13    1
    37    26    11    1
    38    11     7    1
    39    11    27    1
    40    33    13    1
    41     7    22    1
    42     7    21    1
    43    13    32    1
    44    13    31    1
@<TRIPOS>MOLECULE
11996452_7_run_9.pdb
 42 44 0 0 0
SMALL
GASTEIGER

@<TRIPOS>ATOM
      1    O       26.3090    5.6120    6.2330 O.3     2  LIG2       -0.3886
      2    C       27.0830    3.0090    5.0690 C.3     2  LIG2       -0.0289
      3    C       28.3510    2.2760    4.6520 C.3     2  LIG2       -0.0284
      4    C       28.4280    3.7430    4.9990 C.3     2  LIG2       -0.0319
      5    C       25.9570    3.4070    4.0690 C.3     2  LIG2       -0.0294
      6    C       25.4670    4.8980    4.0670 C.3     2  LIG2       -0.0090
      7    C       28.5470    4.8850    3.9750 C.3     2  LIG2       -0.0468
      8    C       24.6950    2.5260    4.2510 C.3     2  LIG2       -0.0404
      9    C       26.2810    5.9820    4.8630 C.3     2  LIG2        0.0664
     10    C       23.9660    4.8170    4.4080 C.3     2  LIG2       -0.0471
     11    C       27.7570    6.1500    4.3750 C.3     2  LIG2       -0.0237
     12    C       28.9330    1.2850    5.6780 C.3     2  LIG2       -0.0593
     13    C       28.5820    1.7930    3.2010 C.3     2  LIG2       -0.0593
     14    C       23.5140    3.4410    3.9280 C.3     2  LIG2       -0.0498
     15    C       24.7260    1.2320    3.4180 C.3     2  LIG2       -0.0621
     16    C       25.5960    7.3700    4.8170 C.3     2  LIG2       -0.0358
     17    H       26.6940    2.8340    6.0740 H       2  LIG2        0.0312
     18    H       28.9330    3.9930    5.9330 H       2  LIG2        0.0309
     19    H       26.3150    3.2390    3.0550 H       2  LIG2        0.0310
     20    H       25.5040    5.2340    3.0270 H       2  LIG2        0.0331
     21    H       29.5990    5.1440    3.8550 H       2  LIG2        0.0269
     22    H       28.2150    4.5750    2.9860 H       2  LIG2        0.0269
     23    H       24.5930    2.2460    5.3010 H       2  LIG2        0.0301
     24    H       23.8050    4.9120    5.4830 H       2  LIG2        0.0269
     25    H       23.3910    5.6070    3.9230 H       2  LIG2        0.0269
     26    H       28.3290    6.7020    5.1240 H       2  LIG2        0.0293
     27    H       27.7600    6.7930    3.4940 H       2  LIG2        0.0293
     28    H       30.0070    1.1580    5.5340 H       2  LIG2        0.0235
     29    H       28.4630    0.3060    5.5870 H       2  LIG2        0.0235
     30    H       28.7830    1.6220    6.7050 H       2  LIG2        0.0235
     31    H       29.6450    1.6440    3.0130 H       2  LIG2        0.0235
     32    H       28.2270    2.4760    2.4350 H       2  LIG2        0.0235
     33    H       28.0810    0.8390    3.0310 H       2  LIG2        0.0235
     34    H       23.3130    3.4570    2.8550 H       2  LIG2        0.0268
     35    H       22.5980    3.1250    4.4300 H       2  LIG2        0.0268
     36    H       24.8070    1.4420    2.3500 H       2  LIG2        0.0233
     37    H       23.8190    0.6450    3.5720 H       2  LIG2        0.0233
     38    H       25.5740    0.6050    3.6980 H       2  LIG2        0.0233
     39    H       25.4810    7.7200    3.7910 H       2  LIG2        0.0257
     40    H       26.1740    8.1230    5.3560 H       2  LIG2        0.0257
     41    H       24.6030    7.3540    5.2680 H       2  LIG2        0.0257
     42    H       26.8610    6.2390    6.7050 H       2  LIG2        0.2102
@<TRIPOS>BOND
     1    36    15    1
     2    32    13    1
     3    34    14    1
     4    22     7    1
     5    31    13    1
     6    20     6    1
     7    33    13    1
     8    19     5    1
     9    13     3    1
    10    15    37    1
    11    15    38    1
    12    15     8    1
    13    27    11    1
    14    39    16    1
    15    21     7    1
    16    25    10    1
    17    14     8    1
    18    14    10    1
    19    14    35    1
    20     7    11    1
    21     7     4    1
    22     6     5    1
    23     6    10    1
    24     6     9    1
    25     5     8    1
    26     5     2    1
    27     8    23    1
    28    11     9    1
    29    11    26    1
    30    10    24    1
    31     3     4    1
    32     3     2    1
    33     3    12    1
    34    16     9    1
    35    16    41    1
    36    16    40    1
    37     9     1    1
    38     4     2    1
    39     4    18    1
    40     2    17    1
    41    28    12    1
    42    29    12    1
    43    12    30    1
    44     1    42    1
@<TRIPOS>MOLECULE
11996452_7_run_11.pdb
 42 44 0 0 0
SMALL
GASTEIGER

@<TRIPOS>ATOM
      1    O       26.6680   -0.0170    5.1450 O.3     2  LIG2       -0.3886
      2    C       27.6510    2.7700    5.1800 C.3     2  LIG2       -0.0289
      3    C       27.2530    4.1290    4.6190 C.3     2  LIG2       -0.0284
      4    C       26.5430    2.8900    4.1260 C.3     2  LIG2       -0.0319
      5    C       28.9740    2.0400    4.7990 C.3     2  LIG2       -0.0294
      6    C       28.8800    0.5510    4.3120 C.3     2  LIG2       -0.0090
      7    C       26.7940    2.2120    2.7680 C.3     2  LIG2       -0.0468
      8    C       29.9930    2.0630    5.9650 C.3     2  LIG2       -0.0404
      9    C       27.4740   -0.0680    3.9790 C.3     2  LIG2        0.0664
     10    C       29.7290   -0.2450    5.3240 C.3     2  LIG2       -0.0471
     11    C       26.7130    0.6720    2.8290 C.3     2  LIG2       -0.0237
     12    C       26.4660    5.0530    5.5670 C.3     2  LIG2       -0.0593
     13    C       28.1820    4.9340    3.6800 C.3     2  LIG2       -0.0593
     14    C       30.7610    0.7450    5.8560 C.3     2  LIG2       -0.0498
     15    C       30.8950    3.3100    5.9680 C.3     2  LIG2       -0.0621
     16    C       27.5750   -1.5670    3.6040 C.3     2  LIG2       -0.0358
     17    H       27.3170    2.5100    6.1870 H       2  LIG2        0.0312
     18    H       25.5070    2.7690    4.4450 H       2  LIG2        0.0309
     19    H       29.4360    2.5680    3.9670 H       2  LIG2        0.0310
     20    H       29.4350    0.4970    3.3720 H       2  LIG2        0.0331
     21    H       26.0630    2.5800    2.0490 H       2  LIG2        0.0269
     22    H       27.7630    2.4860    2.3550 H       2  LIG2        0.0269
     23    H       29.4600    2.0330    6.9180 H       2  LIG2        0.0301
     24    H       29.1110   -0.6200    6.1410 H       2  LIG2        0.0269
     25    H       30.2150   -1.1060    4.8640 H       2  LIG2        0.0269
     26    H       25.6630    0.3730    2.8350 H       2  LIG2        0.0293
     27    H       27.0990    0.3150    1.8730 H       2  LIG2        0.0293
     28    H       25.8490    5.7550    5.0070 H       2  LIG2        0.0235
     29    H       27.1410    5.6290    6.2000 H       2  LIG2        0.0235
     30    H       25.8020    4.4940    6.2280 H       2  LIG2        0.0235
     31    H       27.6060    5.6570    3.1030 H       2  LIG2        0.0235
     32    H       28.7300    4.3320    2.9610 H       2  LIG2        0.0235
     33    H       28.9220    5.4890    4.2580 H       2  LIG2        0.0235
     34    H       31.5980    0.8360    5.1610 H       2  LIG2        0.0268
     35    H       31.1640    0.4220    6.8170 H       2  LIG2        0.0268
     36    H       31.4750    3.3890    5.0460 H       2  LIG2        0.0233
     37    H       31.5990    3.2830    6.8000 H       2  LIG2        0.0233
     38    H       30.3040    4.2210    6.0660 H       2  LIG2        0.0233
     39    H       28.2240   -1.7160    2.7400 H       2  LIG2        0.0257
     40    H       26.5990   -1.9870    3.3550 H       2  LIG2        0.0257
     41    H       27.9780   -2.1680    4.4200 H       2  LIG2        0.0257
     42    H       25.7970   -0.3570    4.9280 H       2  LIG2        0.2102
@<TRIPOS>BOND
     1    27    11    1
     2    21     7    1
     3    22     7    1
     4    39    16    1
     5     7    11    1
     6     7     4    1
     7    11    26    1
     8    11     9    1
     9    32    13    1
    10    31    13    1
    11    40    16    1
    12    20     6    1
    13    16     9    1
    14    16    41    1
    15    13    33    1
    16    13     3    1
    17    19     5    1
    18     9     6    1
    19     9     1    1
    20     4    18    1
    21     4     3    1
    22     4     2    1
    23     6     5    1
    24     6    10    1
    25     3     2    1
    26     3    12    1
    27     5     2    1
    28     5     8    1
    29    25    10    1
    30    42     1    1
    31    28    12    1
    32    36    15    1
    33    34    14    1
    34     2    17    1
    35    10    14    1
    36    10    24    1
    37    12    29    1
    38    12    30    1
    39    14     8    1
    40    14    35    1
    41     8    15    1
    42     8    23    1
    43    15    38    1
    44    15    37    1
@<TRIPOS>MOLECULE
11996452_7_run_20.pdb
 42 44 0 0 0
SMALL
GASTEIGER

@<TRIPOS>ATOM
      1    O       27.5690    3.4440    2.6050 O.3     2  LIG2       -0.3886
      2    C       28.6060    0.8440    3.5540 C.3     2  LIG2       -0.0289
      3    C       28.1800   -0.6190    3.5690 C.3     2  LIG2       -0.0284
      4    C       27.1800    0.4360    3.1620 C.3     2  LIG2       -0.0319
      5    C       28.8170    1.6870    4.8470 C.3     2  LIG2       -0.0294
      6    C       28.0850    3.0720    4.9520 C.3     2  LIG2       -0.0090
      7    C       26.0360    0.9540    4.0500 C.3     2  LIG2       -0.0468
      8    C       30.3190    1.9570    5.1120 C.3     2  LIG2       -0.0404
      9    C       26.9810    3.4460    3.8970 C.3     2  LIG2        0.0664
     10    C       29.2200    4.1020    5.1130 C.3     2  LIG2       -0.0471
     11    C       25.7640    2.4650    3.8790 C.3     2  LIG2       -0.0237
     12    C       28.7540   -1.5050    2.4480 C.3     2  LIG2       -0.0593
     13    C       28.0050   -1.4100    4.8860 C.3     2  LIG2       -0.0593
     14    C       30.3720    3.3400    5.7630 C.3     2  LIG2       -0.0498
     15    C       31.0050    0.8540    5.9380 C.3     2  LIG2       -0.0621
     16    C       26.4410    4.8820    4.1090 C.3     2  LIG2       -0.0358
     17    H       29.2390    1.1880    2.7340 H       2  LIG2        0.0312
     18    H       26.9040    0.4590    2.1080 H       2  LIG2        0.0309
     19    H       28.4440    1.1200    5.6980 H       2  LIG2        0.0310
     20    H       27.5620    3.0730    5.9110 H       2  LIG2        0.0331
     21    H       25.1280    0.3990    3.8170 H       2  LIG2        0.0269
     22    H       26.2260    0.7600    5.1040 H       2  LIG2        0.0269
     23    H       30.8490    2.0420    4.1610 H       2  LIG2        0.0301
     24    H       29.5300    4.4960    4.1440 H       2  LIG2        0.0269
     25    H       28.9200    4.9520    5.7280 H       2  LIG2        0.0269
     26    H       25.1840    2.6180    2.9670 H       2  LIG2        0.0293
     27    H       25.0860    2.7390    4.6890 H       2  LIG2        0.0293
     28    H       28.0990   -2.3530    2.2440 H       2  LIG2        0.0235
     29    H       29.7340   -1.8960    2.7210 H       2  LIG2        0.0235
     30    H       28.8740   -0.9580    1.5120 H       2  LIG2        0.0235
     31    H       27.3600   -2.2750    4.7280 H       2  LIG2        0.0235
     32    H       27.5630   -0.8410    5.7000 H       2  LIG2        0.0235
     33    H       28.9670   -1.7790    5.2430 H       2  LIG2        0.0235
     34    H       30.2230    3.2700    6.8430 H       2  LIG2        0.0268
     35    H       31.3270    3.8390    5.5930 H       2  LIG2        0.0268
     36    H       30.5340    0.7320    6.9150 H       2  LIG2        0.0233
     37    H       32.0570    1.0860    6.1050 H       2  LIG2        0.0233
     38    H       30.9570   -0.1070    5.4250 H       2  LIG2        0.0233
     39    H       26.0120    5.0000    5.1040 H       2  LIG2        0.0257
     40    H       25.6620    5.1300    3.3860 H       2  LIG2        0.0257
     41    H       27.2220    5.6350    4.0010 H       2  LIG2        0.0257
     42    H       28.2490    4.1200    2.5800 H       2  LIG2        0.2102
@<TRIPOS>BOND
     1    30    12    1
     2    18     4    1
     3    28    12    1
     4    12    29    1
     5    12     3    1
     6    42     1    1
     7     1     9    1
     8    17     2    1
     9    26    11    1
    10     4     2    1
    11     4     3    1
    12     4     7    1
    13    40    16    1
    14     2     3    1
    15     2     5    1
    16     3    13    1
    17    21     7    1
    18    11     9    1
    19    11     7    1
    20    11    27    1
    21     9    16    1
    22     9     6    1
    23    41    16    1
    24     7    22    1
    25    16    39    1
    26    24    10    1
    27    23     8    1
    28    31    13    1
    29     5     6    1
    30     5     8    1
    31     5    19    1
    32    13    33    1
    33    13    32    1
    34     6    10    1
    35     6    20    1
    36     8    14    1
    37     8    15    1
    38    10    25    1
    39    10    14    1
    40    38    15    1
    41    35    14    1
    42    14    34    1
    43    15    37    1
    44    15    36    1
@<TRIPOS>MOLECULE
11996452_7_run_15.pdb
 42 44 0 0 0
SMALL
GASTEIGER

@<TRIPOS>ATOM
      1    O       26.3710    1.4470    4.8550 O.3     2  LIG2       -0.3886
      2    C       29.1640    0.8740    5.6340 C.3     2  LIG2       -0.0289
      3    C       30.2420    1.4600    6.5370 C.3     2  LIG2       -0.0284
      4    C       28.9880    2.2580    6.2700 C.3     2  LIG2       -0.0319
      5    C       29.3070    0.7720    4.0850 C.3     2  LIG2       -0.0294
      6    C       28.1480    1.3490    3.1980 C.3     2  LIG2       -0.0090
      7    C       28.8960    3.4600    5.3150 C.3     2  LIG2       -0.0468
      8    C       29.5310   -0.6910    3.6280 C.3     2  LIG2       -0.0404
      9    C       27.0260    2.2250    3.8650 C.3     2  LIG2        0.0664
     10    C       27.6460    0.1430    2.3800 C.3     2  LIG2       -0.0471
     11    C       27.5600    3.5290    4.5440 C.3     2  LIG2       -0.0237
     12    C       30.3790    0.8230    7.9320 C.3     2  LIG2       -0.0593
     13    C       31.6090    1.9270    5.9880 C.3     2  LIG2       -0.0593
     14    C       28.8410   -0.7980    2.2670 C.3     2  LIG2       -0.0498
     15    C       31.0120   -1.1100    3.6110 C.3     2  LIG2       -0.0621
     16    C       25.9250    2.6250    2.8510 C.3     2  LIG2       -0.0358
     17    H       28.5260    0.0850    6.0370 H       2  LIG2        0.0312
     18    H       28.2950    2.3620    7.1050 H       2  LIG2        0.0309
     19    H       30.1870    1.3350    3.7790 H       2  LIG2        0.0310
     20    H       28.6180    2.0120    2.4670 H       2  LIG2        0.0331
     21    H       29.0260    4.3780    5.8870 H       2  LIG2        0.0269
     22    H       29.7080    3.4600    4.5890 H       2  LIG2        0.0269
     23    H       28.9990   -1.3690    4.3000 H       2  LIG2        0.0301
     24    H       26.8200   -0.3570    2.8890 H       2  LIG2        0.0269
     25    H       27.2870    0.4370    1.3920 H       2  LIG2        0.0269
     26    H       26.7920    3.9380    5.2040 H       2  LIG2        0.0293
     27    H       27.6990    4.2890    3.7740 H       2  LIG2        0.0293
     28    H       30.8020    1.5300    8.6460 H       2  LIG2        0.0235
     29    H       31.0290   -0.0520    7.9010 H       2  LIG2        0.0235
     30    H       29.4170    0.4970    8.3320 H       2  LIG2        0.0235
     31    H       32.0750    2.6340    6.6750 H       2  LIG2        0.0235
     32    H       31.5640    2.4230    5.0220 H       2  LIG2        0.0235
     33    H       32.2880    1.0800    5.8770 H       2  LIG2        0.0235
     34    H       29.5080   -0.4770    1.4650 H       2  LIG2        0.0268
     35    H       28.5250   -1.8190    2.0450 H       2  LIG2        0.0268
     36    H       31.5990   -0.4820    2.9380 H       2  LIG2        0.0233
     37    H       31.1230   -2.1430    3.2790 H       2  LIG2        0.0233
     38    H       31.4520   -1.0340    4.6050 H       2  LIG2        0.0233
     39    H       26.3430    3.1880    2.0160 H       2  LIG2        0.0257
     40    H       25.1580    3.2480    3.3140 H       2  LIG2        0.0257
     41    H       25.4150    1.7560    2.4340 H       2  LIG2        0.0257
     42    H       25.7180    1.9990    5.2910 H       2  LIG2        0.2102
@<TRIPOS>BOND
     1    25    10    1
     2    34    14    1
     3    39    16    1
     4    35    14    1
     5    14    10    1
     6    14     8    1
     7    10    24    1
     8    10     6    1
     9    41    16    1
    10    20     6    1
    11    16    40    1
    12    16     9    1
    13    36    15    1
    14     6     9    1
    15     6     5    1
    16    37    15    1
    17    15     8    1
    18    15    38    1
    19     8     5    1
    20     8    23    1
    21    27    11    1
    22    19     5    1
    23     9    11    1
    24     9     1    1
    25     5     2    1
    26    11    26    1
    27    11     7    1
    28    22     7    1
    29     1    42    1
    30    32    13    1
    31     7    21    1
    32     7     4    1
    33     2    17    1
    34     2     4    1
    35     2     3    1
    36    33    13    1
    37    13     3    1
    38    13    31    1
    39     4     3    1
    40     4    18    1
    41     3    12    1
    42    29    12    1
    43    12    30    1
    44    12    28    1
@<TRIPOS>MOLECULE
11996452_7_run_20.pdb
 42 44 0 0 0
SMALL
GASTEIGER

@<TRIPOS>ATOM
      1    O       26.7680    4.0800    5.6920 O.3     2  LIG2       -0.3886
      2    C       28.2750    1.5380    5.6570 C.3     2  LIG2       -0.0289
      3    C       29.6890    1.0440    5.9360 C.3     2  LIG2       -0.0284
      4    C       29.4280    2.5290    5.8600 C.3     2  LIG2       -0.0319
      5    C       27.5990    1.4500    4.2560 C.3     2  LIG2       -0.0294
      6    C       26.9600    2.7550    3.6620 C.3     2  LIG2       -0.0090
      7    C       29.7950    3.4280    4.6670 C.3     2  LIG2       -0.0468
      8    C       26.4970    0.3610    4.2230 C.3     2  LIG2       -0.0404
      9    C       27.2400    4.1380    4.3550 C.3     2  LIG2        0.0664
     10    C       25.4720    2.4060    3.4620 C.3     2  LIG2       -0.0471
     11    C       28.7530    4.5340    4.3900 C.3     2  LIG2       -0.0237
     12    C       29.9380    0.4510    7.3350 C.3     2  LIG2       -0.0593
     13    C       30.5390    0.3340    4.8580 C.3     2  LIG2       -0.0593
     14    C       25.4330    0.8930    3.2620 C.3     2  LIG2       -0.0498
     15    C       27.0250   -1.0360    3.8550 C.3     2  LIG2       -0.0621
     16    C       26.4560    5.2910    3.6830 C.3     2  LIG2       -0.0358
     17    H       27.5450    1.4930    6.4670 H       2  LIG2        0.0312
     18    H       29.4820    3.0780    6.8000 H       2  LIG2        0.0309
     19    H       28.3500    1.1590    3.5240 H       2  LIG2        0.0310
     20    H       27.3640    2.8650    2.6530 H       2  LIG2        0.0331
     21    H       30.7640    3.8890    4.8560 H       2  LIG2        0.0269
     22    H       29.9280    2.8500    3.7540 H       2  LIG2        0.0269
     23    H       26.0220    0.2920    5.2040 H       2  LIG2        0.0301
     24    H       24.8850    2.6840    4.3390 H       2  LIG2        0.0269
     25    H       25.0400    2.9230    2.6050 H       2  LIG2        0.0269
     26    H       28.9020    5.3460    5.1040 H       2  LIG2        0.0293
     27    H       29.0220    4.9610    3.4230 H       2  LIG2        0.0293
     28    H       30.9870    0.5450    7.6200 H       2  LIG2        0.0235
     29    H       29.6760   -0.6070    7.3640 H       2  LIG2        0.0235
     30    H       29.3480    0.9510    8.1050 H       2  LIG2        0.0235
     31    H       31.5990    0.3960    5.1050 H       2  LIG2        0.0235
     32    H       30.4330    0.7420    3.8560 H       2  LIG2        0.0235
     33    H       30.2770   -0.7230    4.7980 H       2  LIG2        0.0235
     34    H       25.6750    0.6380    2.2290 H       2  LIG2        0.0268
     35    H       24.4430    0.4880    3.4780 H       2  LIG2        0.0268
     36    H       27.4960   -1.0420    2.8700 H       2  LIG2        0.0233
     37    H       26.2180   -1.7700    3.8380 H       2  LIG2        0.0233
     38    H       27.7660   -1.3790    4.5780 H       2  LIG2        0.0233
     39    H       26.7130    5.3830    2.6270 H       2  LIG2        0.0257
     40    H       26.6670    6.2520    4.1550 H       2  LIG2        0.0257
     41    H       25.3760    5.1430    3.7410 H       2  LIG2        0.0257
     42    H       26.9530    4.9200    6.1150 H       2  LIG2        0.2102
@<TRIPOS>BOND
     1    34    14    1
     2    25    10    1
     3    39    16    1
     4    20     6    1
     5    36    15    1
     6    14    10    1
     7    14    35    1
     8    14     8    1
     9    27    11    1
    10    10     6    1
    11    10    24    1
    12    19     5    1
    13     6     5    1
    14     6     9    1
    15    16    41    1
    16    16    40    1
    17    16     9    1
    18    22     7    1
    19    37    15    1
    20    15     8    1
    21    15    38    1
    22    32    13    1
    23     8     5    1
    24     8    23    1
    25     5     2    1
    26     9    11    1
    27     9     1    1
    28    11     7    1
    29    11    26    1
    30     7    21    1
    31     7     4    1
    32    33    13    1
    33    13    31    1
    34    13     3    1
    35     2     4    1
    36     2     3    1
    37     2    17    1
    38     1    42    1
    39     4     3    1
    40     4    18    1
    41     3    12    1
    42    12    29    1
    43    12    28    1
    44    12    30    1
@<TRIPOS>MOLECULE
11996452_7_run_14.pdb
 42 44 0 0 0
SMALL
GASTEIGER

@<TRIPOS>ATOM
      1    O       27.6120    0.0500    5.4200 O.3     2  LIG2       -0.3886
      2    C       26.2190    2.6320    5.0690 C.3     2  LIG2       -0.0289
      3    C       24.8980    3.1530    4.5150 C.3     2  LIG2       -0.0284
      4    C       25.2900    1.7160    4.2630 C.3     2  LIG2       -0.0319
      5    C       27.6060    3.0100    4.4700 C.3     2  LIG2       -0.0294
      6    C       28.5960    1.8460    4.1100 C.3     2  LIG2       -0.0090
      7    C       25.8300    1.1720    2.9290 C.3     2  LIG2       -0.0468
      8    C       28.3810    3.9820    5.3940 C.3     2  LIG2       -0.0404
      9    C       28.0790    0.3610    4.1170 C.3     2  LIG2        0.0664
     10    C       29.8450    2.1150    4.9730 C.3     2  LIG2       -0.0471
     11    C       26.9180    0.0900    3.1050 C.3     2  LIG2       -0.0237
     12    C       23.7790    3.4000    5.5450 C.3     2  LIG2       -0.0593
     13    C       24.8380    4.1720    3.3550 C.3     2  LIG2       -0.0593
     14    C       29.8560    3.6220    5.2130 C.3     2  LIG2       -0.0498
     15    C       28.0660    5.4650    5.1280 C.3     2  LIG2       -0.0621
     16    C       29.2170   -0.6480    3.8270 C.3     2  LIG2       -0.0358
     17    H       26.2810    2.4180    6.1380 H       2  LIG2        0.0312
     18    H       24.7160    0.9580    4.7960 H       2  LIG2        0.0309
     19    H       27.4490    3.5310    3.5270 H       2  LIG2        0.0310
     20    H       28.9190    2.0210    3.0810 H       2  LIG2        0.0331
     21    H       25.0020    0.7570    2.3550 H       2  LIG2        0.0269
     22    H       26.2380    1.9670    2.3070 H       2  LIG2        0.0269
     23    H       28.1350    3.7690    6.4370 H       2  LIG2        0.0301
     24    H       29.7840    1.5830    5.9230 H       2  LIG2        0.0269
     25    H       30.7620    1.7920    4.4790 H       2  LIG2        0.0269
     26    H       26.4360   -0.8590    3.3480 H       2  LIG2        0.0293
     27    H       27.3490   -0.0620    2.1150 H       2  LIG2        0.0293
     28    H       22.7960    3.3220    5.0810 H       2  LIG2        0.0235
     29    H       23.8650    4.3930    5.9850 H       2  LIG2        0.0235
     30    H       23.8080    2.6790    6.3640 H       2  LIG2        0.0235
     31    H       23.8660    4.1350    2.8640 H       2  LIG2        0.0235
     32    H       25.5820    4.0170    2.5770 H       2  LIG2        0.0235
     33    H       24.9790    5.1880    3.7290 H       2  LIG2        0.0235
     34    H       30.2840    4.1430    4.3550 H       2  LIG2        0.0268
     35    H       30.4540    3.8810    6.0890 H       2  LIG2        0.0268
     36    H       28.3100    5.7510    4.1040 H       2  LIG2        0.0233
     37    H       28.6350    6.1130    5.7960 H       2  LIG2        0.0233
     38    H       27.0080    5.6760    5.2880 H       2  LIG2        0.0233
     39    H       29.6800   -0.4560    2.8590 H       2  LIG2        0.0257
     40    H       28.8500   -1.6760    3.8150 H       2  LIG2        0.0257
     41    H       30.0060   -0.6050    4.5790 H       2  LIG2        0.0257
     42    H       27.2540   -0.8400    5.4090 H       2  LIG2        0.2102
@<TRIPOS>BOND
     1    27    11    1
     2    22     7    1
     3    21     7    1
     4    32    13    1
     5    39    16    1
     6    31    13    1
     7     7    11    1
     8     7     4    1
     9    20     6    1
    10    11    26    1
    11    11     9    1
    12    13    33    1
    13    13     3    1
    14    19     5    1
    15    40    16    1
    16    16     9    1
    17    16    41    1
    18    36    15    1
    19     6     9    1
    20     6     5    1
    21     6    10    1
    22     9     1    1
    23     4     3    1
    24     4    18    1
    25     4     2    1
    26    34    14    1
    27     5     2    1
    28     5     8    1
    29    25    10    1
    30     3     2    1
    31     3    12    1
    32    10    14    1
    33    10    24    1
    34     2    17    1
    35    28    12    1
    36    15    38    1
    37    15     8    1
    38    15    37    1
    39    14     8    1
    40    14    35    1
    41     8    23    1
    42    42     1    1
    43    12    29    1
    44    12    30    1
@<TRIPOS>MOLECULE
11996452_7_run_22.pdb
 42 44 0 0 0
SMALL
GASTEIGER

@<TRIPOS>ATOM
      1    O       28.2270    3.0450    2.9400 O.3     2  LIG2       -0.3886
      2    C       26.0900    5.0050    3.5120 C.3     2  LIG2       -0.0289
      3    C       25.9530    6.4930    3.8060 C.3     2  LIG2       -0.0284
      4    C       27.3260    5.8640    3.8060 C.3     2  LIG2       -0.0319
      5    C       25.6910    3.8920    4.5270 C.3     2  LIG2       -0.0294
      6    C       26.7450    2.7740    4.8480 C.3     2  LIG2       -0.0090
      7    C       28.1350    5.5160    5.0670 C.3     2  LIG2       -0.0468
      8    C       24.3920    3.1660    4.0950 C.3     2  LIG2       -0.0404
      9    C       28.2280    2.9450    4.3560 C.3     2  LIG2        0.0664
     10    C       26.0580    1.4580    4.4330 C.3     2  LIG2       -0.0471
     11    C       28.9460    4.2090    4.9330 C.3     2  LIG2       -0.0237
     12    C       25.5990    7.3930    2.6080 C.3     2  LIG2       -0.0593
     13    C       25.3230    7.0180    5.1170 C.3     2  LIG2       -0.0593
     14    C       24.5610    1.7210    4.5670 C.3     2  LIG2       -0.0498
     15    C       23.1100    3.8430    4.6110 C.3     2  LIG2       -0.0621
     16    C       29.0940    1.7040    4.6870 C.3     2  LIG2       -0.0358
     17    H       25.9830    4.6720    2.4780 H       2  LIG2        0.0312
     18    H       27.9810    6.1330    2.9770 H       2  LIG2        0.0309
     19    H       25.4860    4.3550    5.4900 H       2  LIG2        0.0310
     20    H       26.8200    2.7240    5.9370 H       2  LIG2        0.0331
     21    H       28.8160    6.3370    5.2890 H       2  LIG2        0.0269
     22    H       27.4960    5.4310    5.9440 H       2  LIG2        0.0269
     23    H       24.3370    3.1320    3.0050 H       2  LIG2        0.0301
     24    H       26.3040    1.1990    3.4020 H       2  LIG2        0.0269
     25    H       26.3640    0.6200    5.0600 H       2  LIG2        0.0269
     26    H       29.8500    4.4110    4.3550 H       2  LIG2        0.0293
     27    H       29.3040    3.9760    5.9370 H       2  LIG2        0.0293
     28    H       25.9530    8.4120    2.7650 H       2  LIG2        0.0235
     29    H       24.5210    7.4320    2.4530 H       2  LIG2        0.0235
     30    H       26.0460    7.0360    1.6780 H       2  LIG2        0.0235
     31    H       25.6440    8.0410    5.3120 H       2  LIG2        0.0235
     32    H       25.5760    6.4410    6.0030 H       2  LIG2        0.0235
     33    H       24.2350    7.0230    5.0440 H       2  LIG2        0.0235
     34    H       24.2440    1.6090    5.6050 H       2  LIG2        0.0268
     35    H       23.9780    1.0210    3.9660 H       2  LIG2        0.0268
     36    H       23.0910    3.8910    5.7010 H       2  LIG2        0.0233
     37    H       22.2210    3.2990    4.2880 H       2  LIG2        0.0233
     38    H       23.0250    4.8630    4.2330 H       2  LIG2        0.0233
     39    H       29.1140    1.5110    5.7600 H       2  LIG2        0.0257
     40    H       30.1270    1.8350    4.3600 H       2  LIG2        0.0257
     41    H       28.7220    0.8010    4.2020 H       2  LIG2        0.0257
     42    H       29.1180    3.2500    2.6500 H       2  LIG2        0.2102
@<TRIPOS>BOND
     1    30    12    1
     2    29    12    1
     3    17     2    1
     4    12    28    1
     5    12     3    1
     6    42     1    1
     7     1     9    1
     8    18     4    1
     9    23     8    1
    10    24    10    1
    11     2     4    1
    12     2     3    1
    13     2     5    1
    14     4     3    1
    15     4     7    1
    16     3    13    1
    17    35    14    1
    18     8     5    1
    19     8    14    1
    20     8    15    1
    21    41    16    1
    22    38    15    1
    23    37    15    1
    24    26    11    1
    25     9    16    1
    26     9     6    1
    27     9    11    1
    28    40    16    1
    29    10    14    1
    30    10     6    1
    31    10    25    1
    32     5     6    1
    33     5    19    1
    34    14    34    1
    35    15    36    1
    36    16    39    1
    37     6    20    1
    38    11     7    1
    39    11    27    1
    40    33    13    1
    41     7    21    1
    42     7    22    1
    43    13    31    1
    44    13    32    1
@<TRIPOS>MOLECULE
11996452_7_run_5.pdb
 42 44 0 0 0
SMALL
GASTEIGER

@<TRIPOS>ATOM
      1    O       25.2910    4.3900    2.6070 O.3     2  LIG2       -0.3886
      2    C       27.3310    2.4070    3.4090 C.3     2  LIG2       -0.0289
      3    C       27.4660    0.8950    3.5360 C.3     2  LIG2       -0.0284
      4    C       26.1020    1.4960    3.2950 C.3     2  LIG2       -0.0319
      5    C       27.4340    3.3800    4.6210 C.3     2  LIG2       -0.0294
      6    C       26.2830    4.4270    4.8270 C.3     2  LIG2       -0.0090
      7    C       25.0100    1.6580    4.3670 C.3     2  LIG2       -0.0468
      8    C       28.7620    4.1780    4.6000 C.3     2  LIG2       -0.0404
      9    C       24.9620    4.3000    3.9850 C.3     2  LIG2        0.0664
     10    C       26.9840    5.7980    4.7530 C.3     2  LIG2       -0.0471
     11    C       24.1910    2.9580    4.2140 C.3     2  LIG2       -0.0237
     12    C       28.1280    0.1700    2.3490 C.3     2  LIG2       -0.0593
     13    C       27.8040    0.2100    4.8800 C.3     2  LIG2       -0.0593
     14    C       28.4210    5.5440    5.1980 C.3     2  LIG2       -0.0498
     15    C       29.9220    3.4590    5.3100 C.3     2  LIG2       -0.0621
     16    C       23.9850    5.4700    4.2590 C.3     2  LIG2       -0.0358
     17    H       27.6560    2.8770    2.4790 H       2  LIG2        0.0312
     18    H       25.6680    1.3290    2.3090 H       2  LIG2        0.0309
     19    H       27.4340    2.7950    5.5390 H       2  LIG2        0.0310
     20    H       25.9580    4.3300    5.8660 H       2  LIG2        0.0331
     21    H       24.3360    0.8030    4.3180 H       2  LIG2        0.0269
     22    H       25.4270    1.6350    5.3720 H       2  LIG2        0.0269
     23    H       29.0630    4.3590    3.5660 H       2  LIG2        0.0301
     24    H       26.9690    6.1890    3.7350 H       2  LIG2        0.0269
     25    H       26.5040    6.5400    5.3930 H       2  LIG2        0.0269
     26    H       23.4540    2.8200    3.4200 H       2  LIG2        0.0293
     27    H       23.6020    3.0490    5.1280 H       2  LIG2        0.0293
     28    H       27.7960   -0.8670    2.2890 H       2  LIG2        0.0235
     29    H       29.2140    0.1700    2.4460 H       2  LIG2        0.0235
     30    H       27.8890    0.6410    1.3940 H       2  LIG2        0.0235
     31    H       27.4950   -0.8350    4.8640 H       2  LIG2        0.0235
     32    H       27.3270    0.6580    5.7480 H       2  LIG2        0.0235
     33    H       28.8790    0.2320    5.0630 H       2  LIG2        0.0235
     34    H       28.4870    5.5210    6.2880 H       2  LIG2        0.0268
     35    H       29.0920    6.3280    4.8440 H       2  LIG2        0.0268
     36    H       29.6930    3.2660    6.3600 H       2  LIG2        0.0233
     37    H       30.8340    4.0570    5.2760 H       2  LIG2        0.0233
     38    H       30.1390    2.5010    4.8370 H       2  LIG2        0.0233
     39    H       23.7120    5.5170    5.3140 H       2  LIG2        0.0257
     40    H       23.0620    5.3680    3.6860 H       2  LIG2        0.0257
     41    H       24.4160    6.4360    3.9920 H       2  LIG2        0.0257
     42    H       25.7050    5.2410    2.4500 H       2  LIG2        0.2102
@<TRIPOS>BOND
     1    30    12    1
     2    28    12    1
     3    18     4    1
     4    12    29    1
     5    12     3    1
     6    42     1    1
     7    17     2    1
     8     1     9    1
     9     4     2    1
    10     4     3    1
    11     4     7    1
    12     2     3    1
    13     2     5    1
    14    26    11    1
    15     3    13    1
    16    23     8    1
    17    40    16    1
    18    24    10    1
    19     9    11    1
    20     9    16    1
    21     9     6    1
    22    41    16    1
    23    11     7    1
    24    11    27    1
    25    16    39    1
    26    21     7    1
    27     7    22    1
    28     8     5    1
    29     8    14    1
    30     8    15    1
    31     5     6    1
    32     5    19    1
    33    10     6    1
    34    10    14    1
    35    10    25    1
    36     6    20    1
    37    38    15    1
    38    35    14    1
    39    31    13    1
    40    13    33    1
    41    13    32    1
    42    14    34    1
    43    37    15    1
    44    15    36    1
@<TRIPOS>MOLECULE
11996452_7_run_22.pdb
 42 44 0 0 0
SMALL
GASTEIGER

@<TRIPOS>ATOM
      1    O       28.8490    4.2180    3.3570 O.3     2  LIG2       -0.3886
      2    C       25.9220    3.9230    3.6420 C.3     2  LIG2       -0.0289
      3    C       24.7790    4.5690    4.4140 C.3     2  LIG2       -0.0284
      4    C       26.2030    4.9150    4.7770 C.3     2  LIG2       -0.0319
      5    C       26.3450    2.4350    3.8240 C.3     2  LIG2       -0.0294
      6    C       27.8580    2.1270    4.1040 C.3     2  LIG2       -0.0090
      7    C       26.9540    4.3760    6.0060 C.3     2  LIG2       -0.0468
      8    C       25.9350    1.5730    2.6040 C.3     2  LIG2       -0.0404
      9    C       28.8380    3.3080    4.4460 C.3     2  LIG2        0.0664
     10    C       28.2960    1.2230    2.9340 C.3     2  LIG2       -0.0471
     11    C       28.4490    4.1000    5.7370 C.3     2  LIG2       -0.0237
     12    C       23.9700    5.6420    3.6610 C.3     2  LIG2       -0.0593
     13    C       23.8870    3.7640    5.3870 C.3     2  LIG2       -0.0593
     14    C       27.0280    0.5110    2.4740 C.3     2  LIG2       -0.0498
     15    C       24.5130    0.9930    2.7120 C.3     2  LIG2       -0.0621
     16    C       30.3000    2.8210    4.6000 C.3     2  LIG2       -0.0358
     17    H       26.1350    4.2880    2.6350 H       2  LIG2        0.0312
     18    H       26.5360    5.9210    4.5180 H       2  LIG2        0.0309
     19    H       25.8220    2.0270    4.6870 H       2  LIG2        0.0310
     20    H       27.8850    1.4820    4.9860 H       2  LIG2        0.0331
     21    H       26.8650    5.0960    6.8200 H       2  LIG2        0.0269
     22    H       26.5010    3.4610    6.3850 H       2  LIG2        0.0269
     23    H       25.9810    2.1780    1.6960 H       2  LIG2        0.0301
     24    H       28.7120    1.8160    2.1180 H       2  LIG2        0.0269
     25    H       29.0600    0.5040    3.2340 H       2  LIG2        0.0269
     26    H       28.9940    5.0460    5.7640 H       2  LIG2        0.0293
     27    H       28.8100    3.5460    6.6050 H       2  LIG2        0.0293
     28    H       23.5120    6.3470    4.3550 H       2  LIG2        0.0235
     29    H       23.1750    5.1890    3.0680 H       2  LIG2        0.0235
     30    H       24.5930    6.2210    2.9770 H       2  LIG2        0.0235
     31    H       23.4010    4.4310    6.0990 H       2  LIG2        0.0235
     32    H       24.4170    3.0200    5.9760 H       2  LIG2        0.0235
     33    H       23.1030    3.2370    4.8420 H       2  LIG2        0.0235
     34    H       26.8170   -0.3480    3.1150 H       2  LIG2        0.0268
     35    H       27.1260    0.1430    1.4520 H       2  LIG2        0.0268
     36    H       24.4040    0.3570    3.5920 H       2  LIG2        0.0233
     37    H       24.2680    0.3900    1.8360 H       2  LIG2        0.0233
     38    H       23.7700    1.7870    2.7830 H       2  LIG2        0.0233
     39    H       30.3860    2.0710    5.3870 H       2  LIG2        0.0257
     40    H       30.9730    3.6410    4.8550 H       2  LIG2        0.0257
     41    H       30.6830    2.3740    3.6820 H       2  LIG2        0.0257
     42    H       29.6910    4.6780    3.3550 H       2  LIG2        0.2102
@<TRIPOS>BOND
     1    35    14    1
     2    23     8    1
     3    37    15    1
     4    24    10    1
     5    14     8    1
     6    14    10    1
     7    14    34    1
     8     8    15    1
     9     8     5    1
    10    17     2    1
    11    15    38    1
    12    15    36    1
    13    10    25    1
    14    10     6    1
    15    30    12    1
    16    29    12    1
    17    42     1    1
    18     1     9    1
    19     2     5    1
    20     2     3    1
    21     2     4    1
    22    12    28    1
    23    12     3    1
    24    41    16    1
    25     5     6    1
    26     5    19    1
    27     6     9    1
    28     6    20    1
    29     3     4    1
    30     3    13    1
    31     9    16    1
    32     9    11    1
    33    18     4    1
    34    16    40    1
    35    16    39    1
    36     4     7    1
    37    33    13    1
    38    13    32    1
    39    13    31    1
    40    11    26    1
    41    11     7    1
    42    11    27    1
    43     7    22    1
    44     7    21    1
