@<TRIPOS>MOLECULE
11996452_6_run_20.pdb
 42 44 0 0 0
SMALL
GASTEIGER

@<TRIPOS>ATOM
      1    O       26.3000   -0.3570    3.1050 O.3     2  LIG2       -0.3886
      2    C       29.0730    1.6270    6.0600 C.3     2  LIG2       -0.0289
      3    C       30.5970    1.7980    6.1370 C.3     2  LIG2       -0.0284
      4    C       30.0090    0.6540    5.3360 C.3     2  LIG2       -0.0319
      5    C       28.0080    2.4240    5.2330 C.3     2  LIG2       -0.0294
      6    C       26.9420    1.5750    4.4660 C.3     2  LIG2       -0.0090
      7    C       29.9220    0.5980    3.7970 C.3     2  LIG2       -0.0468
      8    C       28.4080    3.6170    4.3130 C.3     2  LIG2       -0.0404
      9    C       27.3010    0.1120    3.9970 C.3     2  LIG2        0.0664
     10    C       26.4240    2.5420    3.3760 C.3     2  LIG2       -0.0471
     11    C       28.6550   -0.0890    3.2430 C.3     2  LIG2       -0.0237
     12    C       31.4290    2.8880    5.4190 C.3     2  LIG2       -0.0593
     13    C       31.2270    1.4330    7.4970 C.3     2  LIG2       -0.0593
     14    C       27.5930    3.4520    3.0220 C.3     2  LIG2       -0.0498
     15    C       28.2410    5.0010    4.9710 C.3     2  LIG2       -0.0621
     16    C       27.1640   -0.9110    5.1600 C.3     2  LIG2       -0.0358
     17    H       28.5990    1.2410    6.9640 H       2  LIG2        0.0312
     18    H       30.1620   -0.3420    5.7550 H       2  LIG2        0.0309
     19    H       27.4220    2.8970    6.0240 H       2  LIG2        0.0310
     20    H       26.0990    1.4460    5.1490 H       2  LIG2        0.0331
     21    H       29.9810    1.5840    3.3510 H       2  LIG2        0.0269
     22    H       30.8010    0.0760    3.4180 H       2  LIG2        0.0269
     23    H       29.4380    3.5590    4.0010 H       2  LIG2        0.0301
     24    H       26.0460    2.0470    2.4820 H       2  LIG2        0.0269
     25    H       25.5990    3.1370    3.7700 H       2  LIG2        0.0269
     26    H       28.5470    0.2570    2.2130 H       2  LIG2        0.0293
     27    H       28.8640   -1.1570    3.1660 H       2  LIG2        0.0293
     28    H       32.4930    2.7460    5.6100 H       2  LIG2        0.0235
     29    H       31.1700    3.8800    5.7890 H       2  LIG2        0.0235
     30    H       31.3500    2.8930    4.3370 H       2  LIG2        0.0235
     31    H       32.2600    1.1040    7.3780 H       2  LIG2        0.0235
     32    H       30.6920    0.6260    7.9990 H       2  LIG2        0.0235
     33    H       31.2240    2.2910    8.1700 H       2  LIG2        0.0235
     34    H       27.2420    4.4030    2.6190 H       2  LIG2        0.0268
     35    H       28.2050    2.9870    2.2470 H       2  LIG2        0.0268
     36    H       27.2000    5.1940    5.2400 H       2  LIG2        0.0233
     37    H       28.5610    5.7990    4.3000 H       2  LIG2        0.0233
     38    H       28.8390    5.0790    5.8800 H       2  LIG2        0.0233
     39    H       27.8550   -0.7330    5.9780 H       2  LIG2        0.0257
     40    H       27.3380   -1.9350    4.8260 H       2  LIG2        0.0257
     41    H       26.1640   -0.8890    5.5980 H       2  LIG2        0.0257
     42    H       26.5910   -1.1950    2.7380 H       2  LIG2        0.2102
@<TRIPOS>BOND
     1    26    11    1
     2    35    14    1
     3    24    10    1
     4    34    14    1
     5    42     1    1
     6    14    10    1
     7    14     8    1
     8     1     9    1
     9    27    11    1
    10    11     7    1
    11    11     9    1
    12    21     7    1
    13    10    25    1
    14    10     6    1
    15    22     7    1
    16     7     4    1
    17     9     6    1
    18     9    16    1
    19    23     8    1
    20    37    15    1
    21     8    15    1
    22     8     5    1
    23    30    12    1
    24     6    20    1
    25     6     5    1
    26    40    16    1
    27    15    36    1
    28    15    38    1
    29    16    41    1
    30    16    39    1
    31     5    19    1
    32     5     2    1
    33     4    18    1
    34     4     2    1
    35     4     3    1
    36    12    28    1
    37    12    29    1
    38    12     3    1
    39     2     3    1
    40     2    17    1
    41     3    13    1
    42    31    13    1
    43    13    32    1
    44    13    33    1
@<TRIPOS>MOLECULE
11996452_6_run_21.pdb
 42 44 0 0 0
SMALL
GASTEIGER

@<TRIPOS>ATOM
      1    O       31.2520   -0.6150    4.5530 O.3     2  LIG2       -0.3886
      2    C       27.5760    1.6260    3.2040 C.3     2  LIG2       -0.0289
      3    C       26.1070    1.6250    3.6500 C.3     2  LIG2       -0.0284
      4    C       26.9750    0.4100    3.9160 C.3     2  LIG2       -0.0319
      5    C       28.8210    2.3430    3.8290 C.3     2  LIG2       -0.0294
      6    C       30.1160    1.4800    3.9870 C.3     2  LIG2       -0.0090
      7    C       27.5700    0.0250    5.2860 C.3     2  LIG2       -0.0468
      8    C       28.7000    3.2440    5.0940 C.3     2  LIG2       -0.0404
      9    C       29.9940   -0.0830    4.1640 C.3     2  LIG2        0.0664
     10    C       30.9250    2.2350    5.0670 C.3     2  LIG2       -0.0471
     11    C       28.9760   -0.6100    5.2280 C.3     2  LIG2       -0.0237
     12    C       25.5160    2.4190    4.8400 C.3     2  LIG2       -0.0593
     13    C       25.0780    1.4980    2.5090 C.3     2  LIG2       -0.0593
     14    C       29.9030    2.8950    5.9830 C.3     2  LIG2       -0.0498
     15    C       28.5820    4.7490    4.7840 C.3     2  LIG2       -0.0621
     16    C       29.7800   -0.7980    2.8000 C.3     2  LIG2       -0.0358
     17    H       27.7390    1.5110    2.1310 H       2  LIG2        0.0312
     18    H       26.7330   -0.4780    3.3310 H       2  LIG2        0.0309
     19    H       29.0910    3.0470    3.0380 H       2  LIG2        0.0310
     20    H       30.6890    1.6080    3.0660 H       2  LIG2        0.0331
     21    H       27.6210    0.8730    5.9590 H       2  LIG2        0.0269
     22    H       26.8890   -0.6710    5.7770 H       2  LIG2        0.0269
     23    H       27.8350    2.9930    5.6870 H       2  LIG2        0.0301
     24    H       31.5990    1.6030    5.6450 H       2  LIG2        0.0269
     25    H       31.5470    2.9980    4.5970 H       2  LIG2        0.0269
     26    H       29.4050   -0.4910    6.2250 H       2  LIG2        0.0293
     27    H       28.8490   -1.6860    5.0960 H       2  LIG2        0.0293
     28    H       24.4560    2.1950    4.9610 H       2  LIG2        0.0235
     29    H       25.5960    3.4920    4.6680 H       2  LIG2        0.0235
     30    H       25.9500    2.1930    5.8090 H       2  LIG2        0.0235
     31    H       24.1570    1.0280    2.8580 H       2  LIG2        0.0235
     32    H       25.4490    0.8930    1.6810 H       2  LIG2        0.0235
     33    H       24.8210    2.4770    2.1050 H       2  LIG2        0.0235
     34    H       30.3280    3.7680    6.4800 H       2  LIG2        0.0268
     35    H       29.6030    2.1990    6.7680 H       2  LIG2        0.0268
     36    H       29.4650    5.1210    4.2620 H       2  LIG2        0.0233
     37    H       28.4700    5.3330    5.6990 H       2  LIG2        0.0233
     38    H       27.7130    4.9540    4.1570 H       2  LIG2        0.0233
     39    H       28.8490   -0.5280    2.3100 H       2  LIG2        0.0257
     40    H       29.7690   -1.8850    2.9040 H       2  LIG2        0.0257
     41    H       30.5760   -0.5590    2.0920 H       2  LIG2        0.0257
     42    H       31.9420   -0.1190    4.1050 H       2  LIG2        0.2102
@<TRIPOS>BOND
     1    32    13    1
     2    41    16    1
     3    33    13    1
     4    17     2    1
     5    39    16    1
     6    13    31    1
     7    13     3    1
     8    16    40    1
     9    16     9    1
    10    19     5    1
    11    20     6    1
    12     2     3    1
    13     2     5    1
    14     2     4    1
    15    18     4    1
    16     3     4    1
    17     3    12    1
    18     5     6    1
    19     5     8    1
    20     4     7    1
    21     6     9    1
    22     6    10    1
    23    42     1    1
    24    38    15    1
    25     9     1    1
    26     9    11    1
    27    36    15    1
    28    25    10    1
    29    29    12    1
    30    15     8    1
    31    15    37    1
    32    12    28    1
    33    12    30    1
    34    10    24    1
    35    10    14    1
    36     8    23    1
    37     8    14    1
    38    27    11    1
    39    11     7    1
    40    11    26    1
    41     7    22    1
    42     7    21    1
    43    14    34    1
    44    14    35    1
@<TRIPOS>MOLECULE
11996452_6_run_2.pdb
 42 44 0 0 0
SMALL
GASTEIGER

@<TRIPOS>ATOM
      1    O       24.7610    4.3270    4.1890 O.3     2  LIG2       -0.3886
      2    C       27.5270    0.8080    4.7570 C.3     2  LIG2       -0.0289
      3    C       28.1840   -0.1930    3.7950 C.3     2  LIG2       -0.0284
      4    C       26.9140    0.5230    3.3820 C.3     2  LIG2       -0.0319
      5    C       27.9380    2.2740    5.1250 C.3     2  LIG2       -0.0294
      6    C       26.7910    3.3380    5.1370 C.3     2  LIG2       -0.0090
      7    C       26.8390    1.6960    2.3820 C.3     2  LIG2       -0.0468
      8    C       29.2000    2.9510    4.5100 C.3     2  LIG2       -0.0404
      9    C       25.5260    3.1310    4.2170 C.3     2  LIG2        0.0664
     10    C       27.5420    4.6810    4.9870 C.3     2  LIG2       -0.0471
     11    C       25.7800    2.7680    2.7170 C.3     2  LIG2       -0.0237
     12    C       29.4880    0.0360    2.9940 C.3     2  LIG2       -0.0593
     13    C       28.0380   -1.6750    4.1960 C.3     2  LIG2       -0.0593
     14    C       28.7830    4.3860    4.1570 C.3     2  LIG2       -0.0498
     15    C       30.4510    2.8780    5.4070 C.3     2  LIG2       -0.0621
     16    C       24.5100    2.1430    4.8550 C.3     2  LIG2       -0.0358
     17    H       27.0040    0.3660    5.6070 H       2  LIG2        0.0312
     18    H       26.0200   -0.1000    3.3210 H       2  LIG2        0.0309
     19    H       28.1910    2.1740    6.1820 H       2  LIG2        0.0310
     20    H       26.3920    3.3510    6.1530 H       2  LIG2        0.0331
     21    H       27.7930    2.2000    2.2760 H       2  LIG2        0.0269
     22    H       26.6330    1.2940    1.3900 H       2  LIG2        0.0269
     23    H       29.4810    2.5040    3.5700 H       2  LIG2        0.0301
     24    H       26.9540    5.4720    4.5220 H       2  LIG2        0.0269
     25    H       27.8340    5.0530    5.9700 H       2  LIG2        0.0269
     26    H       26.0760    3.6680    2.1750 H       2  LIG2        0.0293
     27    H       24.8380    2.4570    2.2630 H       2  LIG2        0.0293
     28    H       29.6990   -0.8200    2.3530 H       2  LIG2        0.0235
     29    H       30.3400    0.1470    3.6640 H       2  LIG2        0.0235
     30    H       29.4720    0.8820    2.3140 H       2  LIG2        0.0235
     31    H       28.0630   -2.3250    3.3200 H       2  LIG2        0.0235
     32    H       27.0990   -1.8750    4.7130 H       2  LIG2        0.0235
     33    H       28.8450   -1.9800    4.8620 H       2  LIG2        0.0235
     34    H       29.5700    5.1160    4.3550 H       2  LIG2        0.0268
     35    H       28.5460    4.4590    3.0940 H       2  LIG2        0.0268
     36    H       30.2940    3.3930    6.3570 H       2  LIG2        0.0233
     37    H       31.3120    3.3390    4.9210 H       2  LIG2        0.0233
     38    H       30.7150    1.8440    5.6290 H       2  LIG2        0.0233
     39    H       24.9000    1.1370    4.9760 H       2  LIG2        0.0257
     40    H       23.5990    2.0520    4.2600 H       2  LIG2        0.0257
     41    H       24.2030    2.4710    5.8500 H       2  LIG2        0.0257
     42    H       24.6050    4.6080    5.0950 H       2  LIG2        0.2102
@<TRIPOS>BOND
     1    22     7    1
     2    26    11    1
     3    27    11    1
     4    21     7    1
     5    30    12    1
     6    28    12    1
     7     7    11    1
     8     7     4    1
     9    11     9    1
    10    12    29    1
    11    12     3    1
    12    35    14    1
    13    31    13    1
    14    18     4    1
    15     4     3    1
    16     4     2    1
    17    23     8    1
    18     3    13    1
    19     3     2    1
    20    14    34    1
    21    14     8    1
    22    14    10    1
    23     1     9    1
    24     1    42    1
    25    13    32    1
    26    13    33    1
    27     9    16    1
    28     9     6    1
    29    40    16    1
    30     8     5    1
    31     8    15    1
    32    24    10    1
    33     2     5    1
    34     2    17    1
    35    16    39    1
    36    16    41    1
    37    37    15    1
    38    10     6    1
    39    10    25    1
    40     5     6    1
    41     5    19    1
    42     6    20    1
    43    15    38    1
    44    15    36    1
@<TRIPOS>MOLECULE
11996452_6_run_6.pdb
 42 44 0 0 0
SMALL
GASTEIGER

@<TRIPOS>ATOM
      1    O       28.8350    0.4830    4.1110 O.3     2  LIG2       -0.3886
      2    C       27.0990    4.5060    5.1880 C.3     2  LIG2       -0.0289
      3    C       26.9930    5.8490    4.4520 C.3     2  LIG2       -0.0284
      4    C       28.0760    4.8620    4.0640 C.3     2  LIG2       -0.0319
      5    C       26.2230    3.2130    5.0630 C.3     2  LIG2       -0.0294
      6    C       26.9940    1.8550    4.9600 C.3     2  LIG2       -0.0090
      7    C       28.0590    3.9740    2.8020 C.3     2  LIG2       -0.0468
      8    C       25.0070    3.1370    4.0910 C.3     2  LIG2       -0.0404
      9    C       28.4470    1.8280    4.3480 C.3     2  LIG2        0.0664
     10    C       25.9590    0.8990    4.3240 C.3     2  LIG2       -0.0471
     11    C       28.6690    2.5680    2.9890 C.3     2  LIG2       -0.0237
     12    C       25.9070    6.2390    3.4220 C.3     2  LIG2       -0.0593
     13    C       27.4440    7.0780    5.2680 C.3     2  LIG2       -0.0593
     14    C       25.0820    1.7570    3.4220 C.3     2  LIG2       -0.0498
     15    C       23.6490    3.4220    4.7610 C.3     2  LIG2       -0.0621
     16    C       29.5150    2.2650    5.3900 C.3     2  LIG2       -0.0358
     17    H       27.5070    4.5570    6.2000 H       2  LIG2        0.0312
     18    H       29.0950    5.1550    4.3210 H       2  LIG2        0.0309
     19    H       25.7640    3.1600    6.0520 H       2  LIG2        0.0310
     20    H       27.1200    1.4930    5.9830 H       2  LIG2        0.0331
     21    H       27.0570    3.8470    2.4090 H       2  LIG2        0.0269
     22    H       28.5990    4.4900    2.0060 H       2  LIG2        0.0269
     23    H       25.0940    3.8430    3.2810 H       2  LIG2        0.0301
     24    H       26.3970    0.0790    3.7570 H       2  LIG2        0.0269
     25    H       25.3490    0.4410    5.1050 H       2  LIG2        0.0269
     26    H       28.2730    1.9540    2.1770 H       2  LIG2        0.0293
     27    H       29.7410    2.6430    2.7950 H       2  LIG2        0.0293
     28    H       26.1010    7.2340    3.0190 H       2  LIG2        0.0235
     29    H       24.9240    6.2730    3.8890 H       2  LIG2        0.0235
     30    H       25.8500    5.6030    2.5440 H       2  LIG2        0.0235
     31    H       27.8100    7.8720    4.6150 H       2  LIG2        0.0235
     32    H       28.2510    6.8410    5.9630 H       2  LIG2        0.0235
     33    H       26.6190    7.4790    5.8550 H       2  LIG2        0.0235
     34    H       24.1000    1.3010    3.2810 H       2  LIG2        0.0268
     35    H       25.5360    1.8410    2.4330 H       2  LIG2        0.0268
     36    H       23.4270    2.6920    5.5420 H       2  LIG2        0.0233
     37    H       22.8360    3.3860    4.0350 H       2  LIG2        0.0233
     38    H       23.6370    4.4120    5.2170 H       2  LIG2        0.0233
     39    H       29.4020    3.2930    5.7230 H       2  LIG2        0.0257
     40    H       30.5300    2.1780    4.9980 H       2  LIG2        0.0257
     41    H       29.4730    1.6490    6.2900 H       2  LIG2        0.0257
     42    H       29.7130    0.4850    3.7220 H       2  LIG2        0.2102
@<TRIPOS>BOND
     1    22     7    1
     2    26    11    1
     3    21     7    1
     4    35    14    1
     5    30    12    1
     6    27    11    1
     7     7    11    1
     8     7     4    1
     9    11     9    1
    10    28    12    1
    11    34    14    1
    12    23     8    1
    13    12    29    1
    14    12     3    1
    15    14     8    1
    16    14    10    1
    17    42     1    1
    18    24    10    1
    19    37    15    1
    20     4    18    1
    21     4     3    1
    22     4     2    1
    23     8    15    1
    24     8     5    1
    25     1     9    1
    26    10     6    1
    27    10    25    1
    28     9     6    1
    29     9    16    1
    30     3     2    1
    31     3    13    1
    32    31    13    1
    33    15    38    1
    34    15    36    1
    35     6     5    1
    36     6    20    1
    37    40    16    1
    38     5     2    1
    39     5    19    1
    40     2    17    1
    41    13    33    1
    42    13    32    1
    43    16    39    1
    44    16    41    1
@<TRIPOS>MOLECULE
11996452_6_run_2.pdb
 42 44 0 0 0
SMALL
GASTEIGER

@<TRIPOS>ATOM
      1    O       26.1230    2.8020    2.9120 O.3     2  LIG2       -0.3886
      2    C       30.2530    2.1140    4.5930 C.3     2  LIG2       -0.0289
      3    C       30.8080    1.9510    6.0150 C.3     2  LIG2       -0.0284
      4    C       29.5010    2.6880    5.7970 C.3     2  LIG2       -0.0319
      5    C       29.5360    1.0780    3.6630 C.3     2  LIG2       -0.0294
      6    C       28.2390    1.5700    2.9390 C.3     2  LIG2       -0.0090
      7    C       28.0990    2.1180    6.0960 C.3     2  LIG2       -0.0468
      8    C       29.2910   -0.3950    4.1110 C.3     2  LIG2       -0.0404
      9    C       27.3660    2.7090    3.5940 C.3     2  LIG2        0.0664
     10    C       27.5050    0.2580    2.5770 C.3     2  LIG2       -0.0471
     11    C       26.9980    2.5540    5.1050 C.3     2  LIG2       -0.0237
     12    C       30.8220    0.6430    6.8420 C.3     2  LIG2       -0.0593
     13    C       32.0410    2.8190    6.3380 C.3     2  LIG2       -0.0593
     14    C       27.8650   -0.7450    3.6640 C.3     2  LIG2       -0.0498
     15    C       30.3550   -1.3900    3.6050 C.3     2  LIG2       -0.0621
     16    C       27.9610    4.1180    3.3170 C.3     2  LIG2       -0.0358
     17    H       30.7720    2.8450    3.9690 H       2  LIG2        0.0312
     18    H       29.5320    3.7640    5.9770 H       2  LIG2        0.0309
     19    H       30.2520    0.9810    2.8450 H       2  LIG2        0.0310
     20    H       28.5590    1.9860    1.9810 H       2  LIG2        0.0331
     21    H       28.1000    1.0350    6.1280 H       2  LIG2        0.0269
     22    H       27.8080    2.4200    7.1020 H       2  LIG2        0.0269
     23    H       29.2780   -0.4940    5.1840 H       2  LIG2        0.0301
     24    H       26.4230    0.3590    2.4970 H       2  LIG2        0.0269
     25    H       27.8530   -0.1050    1.6090 H       2  LIG2        0.0269
     26    H       26.1920    1.8240    5.2060 H       2  LIG2        0.0293
     27    H       26.5790    3.4940    5.4680 H       2  LIG2        0.0293
     28    H       31.2300    0.8240    7.8370 H       2  LIG2        0.0235
     29    H       31.4560   -0.1070    6.3710 H       2  LIG2        0.0235
     30    H       29.8480    0.2020    7.0290 H       2  LIG2        0.0235
     31    H       32.0960    3.0460    7.4040 H       2  LIG2        0.0235
     32    H       32.0270    3.7730    5.8100 H       2  LIG2        0.0235
     33    H       32.9620    2.3080    6.0570 H       2  LIG2        0.0235
     34    H       27.7760   -1.7690    3.2970 H       2  LIG2        0.0268
     35    H       27.1730   -0.6500    4.5030 H       2  LIG2        0.0268
     36    H       30.3780   -1.4310    2.5150 H       2  LIG2        0.0233
     37    H       30.1560   -2.3990    3.9690 H       2  LIG2        0.0233
     38    H       31.3500   -1.1080    3.9490 H       2  LIG2        0.0233
     39    H       28.9420    4.2690    3.7580 H       2  LIG2        0.0257
     40    H       27.3230    4.9150    3.7030 H       2  LIG2        0.0257
     41    H       28.0790    4.3010    2.2470 H       2  LIG2        0.0257
     42    H       26.2970    2.8380    1.9680 H       2  LIG2        0.2102
@<TRIPOS>BOND
     1    25    10    1
     2    42     1    1
     3    20     6    1
     4    41    16    1
     5    24    10    1
     6    36    15    1
     7    10     6    1
     8    10    14    1
     9    19     5    1
    10     1     9    1
    11     6     9    1
    12     6     5    1
    13    34    14    1
    14    16     9    1
    15    16    40    1
    16    16    39    1
    17     9    11    1
    18    15    38    1
    19    15    37    1
    20    15     8    1
    21     5     8    1
    22     5     2    1
    23    14     8    1
    24    14    35    1
    25    17     2    1
    26     8    23    1
    27     2     4    1
    28     2     3    1
    29    11    26    1
    30    11    27    1
    31    11     7    1
    32     4    18    1
    33     4     3    1
    34     4     7    1
    35    32    13    1
    36     3    13    1
    37     3    12    1
    38    33    13    1
    39     7    21    1
    40     7    22    1
    41    13    31    1
    42    29    12    1
    43    12    30    1
    44    12    28    1
@<TRIPOS>MOLECULE
11996452_6_run_8.pdb
 42 44 0 0 0
SMALL
GASTEIGER

@<TRIPOS>ATOM
      1    O       26.1030    6.4010    4.9420 O.3     2  LIG2       -0.3886
      2    C       27.7010    2.5490    3.2190 C.3     2  LIG2       -0.0289
      3    C       28.4250    1.3360    3.8200 C.3     2  LIG2       -0.0284
      4    C       28.4920    2.6770    4.5250 C.3     2  LIG2       -0.0319
      5    C       26.1780    2.9130    3.2080 C.3     2  LIG2       -0.0294
      6    C       25.8090    4.3860    3.5820 C.3     2  LIG2       -0.0090
      7    C       27.7060    3.0530    5.7970 C.3     2  LIG2       -0.0468
      8    C       25.1070    1.9830    3.8540 C.3     2  LIG2       -0.0404
      9    C       26.7600    5.2100    4.5320 C.3     2  LIG2        0.0664
     10    C       24.3240    4.2920    4.0040 C.3     2  LIG2       -0.0471
     11    C       27.2290    4.5210    5.8550 C.3     2  LIG2       -0.0237
     12    C       27.7540    0.1330    4.5260 C.3     2  LIG2       -0.0593
     13    C       29.6940    0.8920    3.0640 C.3     2  LIG2       -0.0593
     14    C       24.1380    2.9070    4.6070 C.3     2  LIG2       -0.0498
     15    C       24.4060    1.0420    2.8550 C.3     2  LIG2       -0.0621
     16    C       27.9760    5.7940    3.7590 C.3     2  LIG2       -0.0358
     17    H       28.1730    2.9860    2.3380 H       2  LIG2        0.0312
     18    H       29.4660    3.1700    4.5070 H       2  LIG2        0.0309
     19    H       25.9460    2.8650    2.1410 H       2  LIG2        0.0310
     20    H       25.8000    4.9500    2.6470 H       2  LIG2        0.0331
     21    H       26.8370    2.4210    5.9400 H       2  LIG2        0.0269
     22    H       28.3340    2.8520    6.6660 H       2  LIG2        0.0269
     23    H       25.5310    1.3470    4.6150 H       2  LIG2        0.0301
     24    H       24.0110    5.0590    4.7120 H       2  LIG2        0.0269
     25    H       23.6830    4.4030    3.1280 H       2  LIG2        0.0269
     26    H       26.4140    4.5470    6.5820 H       2  LIG2        0.0293
     27    H       28.0300    5.1130    6.3000 H       2  LIG2        0.0293
     28    H       28.5080   -0.5610    4.9000 H       2  LIG2        0.0235
     29    H       27.1280   -0.4240    3.8300 H       2  LIG2        0.0235
     30    H       27.1610    0.3800    5.4010 H       2  LIG2        0.0235
     31    H       30.4020    0.4030    3.7350 H       2  LIG2        0.0235
     32    H       30.2180    1.7310    2.6050 H       2  LIG2        0.0235
     33    H       29.4470    0.1900    2.2680 H       2  LIG2        0.0235
     34    H       23.0990    2.5820    4.5310 H       2  LIG2        0.0268
     35    H       24.3860    2.9270    5.6700 H       2  LIG2        0.0268
     36    H       23.8630    1.6020    2.0910 H       2  LIG2        0.0233
     37    H       23.6890    0.3930    3.3590 H       2  LIG2        0.0233
     38    H       25.1270    0.4010    2.3470 H       2  LIG2        0.0233
     39    H       28.6320    5.0350    3.3440 H       2  LIG2        0.0257
     40    H       28.5990    6.4270    4.3930 H       2  LIG2        0.0257
     41    H       27.6570    6.4110    2.9170 H       2  LIG2        0.0257
     42    H       26.6780    6.8700    5.5520 H       2  LIG2        0.2102
@<TRIPOS>BOND
     1    36    15    1
     2    19     5    1
     3    33    13    1
     4    17     2    1
     5    38    15    1
     6    32    13    1
     7    20     6    1
     8    15    37    1
     9    15     8    1
    10    41    16    1
    11    13    31    1
    12    13     3    1
    13    25    10    1
    14     5     2    1
    15     5     6    1
    16     5     8    1
    17     2     3    1
    18     2     4    1
    19    39    16    1
    20     6    10    1
    21     6     9    1
    22    16    40    1
    23    16     9    1
    24     3     4    1
    25     3    12    1
    26    29    12    1
    27     8    14    1
    28     8    23    1
    29    10    14    1
    30    10    24    1
    31    18     4    1
    32     4     7    1
    33    12    28    1
    34    12    30    1
    35    34    14    1
    36     9     1    1
    37     9    11    1
    38    14    35    1
    39     1    42    1
    40     7    11    1
    41     7    21    1
    42     7    22    1
    43    11    27    1
    44    11    26    1
@<TRIPOS>MOLECULE
11996452_6_run_20.pdb
 42 44 0 0 0
SMALL
GASTEIGER

@<TRIPOS>ATOM
      1    O       24.9270    4.9900    3.1580 O.3     2  LIG2       -0.3886
      2    C       28.7730    2.8700    4.1910 C.3     2  LIG2       -0.0289
      3    C       29.5120    2.5910    5.5070 C.3     2  LIG2       -0.0284
      4    C       28.5500    3.7590    5.4180 C.3     2  LIG2       -0.0319
      5    C       27.5500    2.1350    3.5440 C.3     2  LIG2       -0.0294
      6    C       26.4030    3.0440    2.9900 C.3     2  LIG2       -0.0090
      7    C       27.1310    3.7910    6.0230 C.3     2  LIG2       -0.0468
      8    C       26.8840    0.8990    4.2200 C.3     2  LIG2       -0.0404
      9    C       26.1620    4.4680    3.6250 C.3     2  LIG2        0.0664
     10    C       25.1830    2.0960    2.9370 C.3     2  LIG2       -0.0471
     11    C       26.0850    4.5560    5.1840 C.3     2  LIG2       -0.0237
     12    C       29.2190    1.4300    6.4880 C.3     2  LIG2       -0.0593
     13    C       31.0150    2.9360    5.4980 C.3     2  LIG2       -0.0593
     14    C       25.3680    1.0980    4.0720 C.3     2  LIG2       -0.0498
     15    C       27.3810   -0.4560    3.6790 C.3     2  LIG2       -0.0621
     16    C       27.1600    5.5200    3.0650 C.3     2  LIG2       -0.0358
     17    H       29.3810    3.3070    3.3960 H       2  LIG2        0.0312
     18    H       29.0080    4.7490    5.4430 H       2  LIG2        0.0309
     19    H       27.9950    1.7210    2.6360 H       2  LIG2        0.0310
     20    H       26.6470    3.2470    1.9450 H       2  LIG2        0.0331
     21    H       26.7430    2.7950    6.2000 H       2  LIG2        0.0269
     22    H       27.1860    4.2410    7.0150 H       2  LIG2        0.0269
     23    H       27.0580    0.8770    5.2830 H       2  LIG2        0.0301
     24    H       24.2210    2.5990    3.0290 H       2  LIG2        0.0269
     25    H       25.1650    1.5690    1.9820 H       2  LIG2        0.0269
     26    H       25.1080    4.1990    5.5160 H       2  LIG2        0.0293
     27    H       26.1240    5.6050    5.4830 H       2  LIG2        0.0293
     28    H       29.8610    1.4990    7.3660 H       2  LIG2        0.0235
     29    H       29.4230    0.4670    6.0210 H       2  LIG2        0.0235
     30    H       28.2130    1.4100    6.8940 H       2  LIG2        0.0235
     31    H       31.3690    3.1880    6.4990 H       2  LIG2        0.0235
     32    H       31.2410    3.7890    4.8570 H       2  LIG2        0.0235
     33    H       31.6060    2.0940    5.1360 H       2  LIG2        0.0235
     34    H       24.8380    0.1660    3.8660 H       2  LIG2        0.0268
     35    H       24.9490    1.5020    4.9950 H       2  LIG2        0.0268
     36    H       27.1600   -0.5680    2.6160 H       2  LIG2        0.0233
     37    H       26.9080   -1.2880    4.2030 H       2  LIG2        0.0233
     38    H       28.4590   -0.5590    3.8080 H       2  LIG2        0.0233
     39    H       28.1960    5.3090    3.3100 H       2  LIG2        0.0257
     40    H       26.9520    6.5230    3.4430 H       2  LIG2        0.0257
     41    H       27.1110    5.5790    1.9760 H       2  LIG2        0.0257
     42    H       24.2150    4.5600    3.6370 H       2  LIG2        0.2102
@<TRIPOS>BOND
     1    20     6    1
     2    41    16    1
     3    25    10    1
     4    36    15    1
     5    19     5    1
     6    10     6    1
     7    10    24    1
     8    10    14    1
     9     6     5    1
    10     6     9    1
    11    16    39    1
    12    16    40    1
    13    16     9    1
    14     1     9    1
    15     1    42    1
    16    17     2    1
    17     5     2    1
    18     5     8    1
    19     9    11    1
    20    15    38    1
    21    15    37    1
    22    15     8    1
    23    34    14    1
    24    14     8    1
    25    14    35    1
    26     2     4    1
    27     2     3    1
    28     8    23    1
    29    32    13    1
    30    33    13    1
    31    11    27    1
    32    11    26    1
    33    11     7    1
    34     4    18    1
    35     4     3    1
    36     4     7    1
    37    13     3    1
    38    13    31    1
    39     3    12    1
    40    29    12    1
    41     7    21    1
    42     7    22    1
    43    12    30    1
    44    12    28    1
@<TRIPOS>MOLECULE
11996452_6_run_3.pdb
 42 44 0 0 0
SMALL
GASTEIGER

@<TRIPOS>ATOM
      1    O       22.9920    3.9240    3.7770 O.3     2  LIG2       -0.3886
      2    C       27.0410    3.3150    5.6720 C.3     2  LIG2       -0.0289
      3    C       28.3430    2.6480    5.2060 C.3     2  LIG2       -0.0284
      4    C       27.0220    2.2350    4.5860 C.3     2  LIG2       -0.0319
      5    C       26.4630    4.7350    5.3510 C.3     2  LIG2       -0.0294
      6    C       24.9500    4.8000    4.9580 C.3     2  LIG2       -0.0090
      7    C       26.5310    2.6470    3.1840 C.3     2  LIG2       -0.0468
      8    C       27.2270    5.7460    4.4430 C.3     2  LIG2       -0.0404
      9    C       24.2660    3.5510    4.2810 C.3     2  LIG2        0.0664
     10    C       24.8280    6.1460    4.2070 C.3     2  LIG2       -0.0471
     11    C       25.0100    2.8910    3.0740 C.3     2  LIG2       -0.0237
     12    C       29.4340    3.2980    4.3220 C.3     2  LIG2       -0.0593
     13    C       28.9670    1.6610    6.2130 C.3     2  LIG2       -0.0593
     14    C       26.1700    6.3780    3.5260 C.3     2  LIG2       -0.0498
     15    C       28.0620    6.7820    5.2220 C.3     2  LIG2       -0.0621
     16    C       23.8660    2.4770    5.3310 C.3     2  LIG2       -0.0358
     17    H       26.6800    3.0030    6.6540 H       2  LIG2        0.0312
     18    H       26.6740    1.2330    4.8430 H       2  LIG2        0.0309
     19    H       26.4820    5.2100    6.3340 H       2  LIG2        0.0310
     20    H       24.3950    4.9460    5.8880 H       2  LIG2        0.0331
     21    H       27.0310    3.5390    2.8240 H       2  LIG2        0.0269
     22    H       26.8160    1.8710    2.4730 H       2  LIG2        0.0269
     23    H       27.9130    5.2510    3.7760 H       2  LIG2        0.0301
     24    H       24.0210    6.1790    3.4750 H       2  LIG2        0.0269
     25    H       24.6310    6.9500    4.9180 H       2  LIG2        0.0269
     26    H       24.8630    3.5040    2.1820 H       2  LIG2        0.0293
     27    H       24.5360    1.9340    2.8450 H       2  LIG2        0.0293
     28    H       30.2260    2.5820    4.1030 H       2  LIG2        0.0235
     29    H       29.8990    4.1380    4.8350 H       2  LIG2        0.0235
     30    H       29.1000    3.6330    3.3450 H       2  LIG2        0.0235
     31    H       29.5490    0.8920    5.7030 H       2  LIG2        0.0235
     32    H       28.2140    1.1460    6.8110 H       2  LIG2        0.0235
     33    H       29.6310    2.1790    6.9050 H       2  LIG2        0.0235
     34    H       26.3430    7.4420    3.3520 H       2  LIG2        0.0268
     35    H       26.1800    5.8920    2.5490 H       2  LIG2        0.0268
     36    H       27.4340    7.4030    5.8630 H       2  LIG2        0.0233
     37    H       28.5990    7.4460    4.5430 H       2  LIG2        0.0233
     38    H       28.8020    6.2920    5.8550 H       2  LIG2        0.0233
     39    H       24.7140    2.0460    5.8550 H       2  LIG2        0.0257
     40    H       23.3260    1.6430    4.8790 H       2  LIG2        0.0257
     41    H       23.2140    2.8930    6.1010 H       2  LIG2        0.0257
     42    H       22.5710    3.1440    3.4080 H       2  LIG2        0.2102
@<TRIPOS>BOND
     1    26    11    1
     2    22     7    1
     3    35    14    1
     4    21     7    1
     5    27    11    1
     6    11     7    1
     7    11     9    1
     8     7     4    1
     9    30    12    1
    10    34    14    1
    11    42     1    1
    12    24    10    1
    13    14    10    1
    14    14     8    1
    15    23     8    1
    16     1     9    1
    17    28    12    1
    18    10    25    1
    19    10     6    1
    20     9     6    1
    21     9    16    1
    22    12    29    1
    23    12     3    1
    24     8    15    1
    25     8     5    1
    26    37    15    1
    27     4    18    1
    28     4     3    1
    29     4     2    1
    30    40    16    1
    31     6     5    1
    32     6    20    1
    33     3     2    1
    34     3    13    1
    35    15    38    1
    36    15    36    1
    37    16    39    1
    38    16    41    1
    39     5     2    1
    40     5    19    1
    41     2    17    1
    42    31    13    1
    43    13    32    1
    44    13    33    1
@<TRIPOS>MOLECULE
11996452_6_run_12.pdb
 42 44 0 0 0
SMALL
GASTEIGER

@<TRIPOS>ATOM
      1    O       26.0630   -0.2530    3.1990 O.3     2  LIG2       -0.3886
      2    C       27.3350    4.0630    3.5390 C.3     2  LIG2       -0.0289
      3    C       26.8680    5.2430    4.4030 C.3     2  LIG2       -0.0284
      4    C       25.9220    4.0900    4.1290 C.3     2  LIG2       -0.0319
      5    C       28.2880    2.8700    3.8900 C.3     2  LIG2       -0.0294
      6    C       27.8090    1.4440    3.4600 C.3     2  LIG2       -0.0090
      7    C       25.5520    2.9850    5.1390 C.3     2  LIG2       -0.0468
      8    C       28.9570    2.7380    5.2910 C.3     2  LIG2       -0.0404
      9    C       26.2650    1.1460    3.3340 C.3     2  LIG2        0.0664
     10    C       28.6220    0.4980    4.3740 C.3     2  LIG2       -0.0471
     11    C       25.3480    1.5840    4.5220 C.3     2  LIG2       -0.0237
     12    C       27.3130    5.5410    5.8550 C.3     2  LIG2       -0.0593
     13    C       26.5990    6.5510    3.6310 C.3     2  LIG2       -0.0593
     14    C       28.8520    1.2550    5.6750 C.3     2  LIG2       -0.0498
     15    C       30.3950    3.2890    5.3550 C.3     2  LIG2       -0.0621
     16    C       25.6930    1.6600    1.9830 C.3     2  LIG2       -0.0358
     17    H       27.4020    4.2640    2.4690 H       2  LIG2        0.0312
     18    H       25.0790    4.3180    3.4740 H       2  LIG2        0.0309
     19    H       29.1310    3.0570    3.2210 H       2  LIG2        0.0310
     20    H       28.2050    1.2740    2.4570 H       2  LIG2        0.0331
     21    H       26.2910    2.8900    5.9270 H       2  LIG2        0.0269
     22    H       24.6390    3.2780    5.6580 H       2  LIG2        0.0269
     23    H       28.4040    3.2620    6.0530 H       2  LIG2        0.0301
     24    H       28.1380   -0.4570    4.5730 H       2  LIG2        0.0269
     25    H       29.5810    0.2660    3.9070 H       2  LIG2        0.0269
     26    H       25.4590    0.8710    5.3420 H       2  LIG2        0.0293
     27    H       24.3050    1.5060    4.2140 H       2  LIG2        0.0293
     28    H       26.7880    6.4140    6.2450 H       2  LIG2        0.0235
     29    H       28.3770    5.7670    5.8960 H       2  LIG2        0.0235
     30    H       27.0990    4.7580    6.5750 H       2  LIG2        0.0235
     31    H       25.8510    7.1620    4.1380 H       2  LIG2        0.0235
     32    H       26.2290    6.3680    2.6210 H       2  LIG2        0.0235
     33    H       27.5100    7.1430    3.5400 H       2  LIG2        0.0235
     34    H       29.7410    0.8880    6.1910 H       2  LIG2        0.0268
     35    H       28.0090    1.0990    6.3510 H       2  LIG2        0.0268
     36    H       31.0600    2.7500    4.6780 H       2  LIG2        0.0233
     37    H       30.8070    3.2000    6.3610 H       2  LIG2        0.0233
     38    H       30.4240    4.3440    5.0810 H       2  LIG2        0.0233
     39    H       25.7500    2.7380    1.8680 H       2  LIG2        0.0257
     40    H       24.6420    1.3920    1.8550 H       2  LIG2        0.0257
     41    H       26.2300    1.2360    1.1320 H       2  LIG2        0.0257
     42    H       26.5930   -0.5660    2.4610 H       2  LIG2        0.2102
@<TRIPOS>BOND
     1    41    16    1
     2    40    16    1
     3    39    16    1
     4    16     9    1
     5    20     6    1
     6    42     1    1
     7    17     2    1
     8    32    13    1
     9     1     9    1
    10    19     5    1
    11     9     6    1
    12     9    11    1
    13     6     5    1
    14     6    10    1
    15    18     4    1
    16     2     5    1
    17     2     4    1
    18     2     3    1
    19    33    13    1
    20    13    31    1
    21    13     3    1
    22     5     8    1
    23    25    10    1
    24     4     3    1
    25     4     7    1
    26    27    11    1
    27    10    24    1
    28    10    14    1
    29     3    12    1
    30    11     7    1
    31    11    26    1
    32    36    15    1
    33    38    15    1
    34     7    22    1
    35     7    21    1
    36     8    15    1
    37     8    14    1
    38     8    23    1
    39    15    37    1
    40    14    34    1
    41    14    35    1
    42    12    29    1
    43    12    28    1
    44    12    30    1
@<TRIPOS>MOLECULE
11996452_6_run_18.pdb
 42 44 0 0 0
SMALL
GASTEIGER

@<TRIPOS>ATOM
      1    O       30.5810   -0.6040    5.3540 O.3     2  LIG2       -0.3886
      2    C       27.4080    2.6020    5.2980 C.3     2  LIG2       -0.0289
      3    C       27.4130    4.0960    4.9420 C.3     2  LIG2       -0.0284
      4    C       28.7000    3.4220    5.3760 C.3     2  LIG2       -0.0319
      5    C       27.3540    1.3430    4.3680 C.3     2  LIG2       -0.0294
      6    C       28.3620    0.1920    4.6930 C.3     2  LIG2       -0.0090
      7    C       29.8530    3.0190    4.4340 C.3     2  LIG2       -0.0468
      8    C       27.2720    1.4710    2.8170 C.3     2  LIG2       -0.0404
      9    C       29.7290    0.5310    5.4040 C.3     2  LIG2        0.0664
     10    C       28.4500   -0.5980    3.3660 C.3     2  LIG2       -0.0471
     11    C       30.5740    1.7070    4.8140 C.3     2  LIG2       -0.0237
     12    C       27.3030    4.6940    3.5190 C.3     2  LIG2       -0.0593
     13    C       26.7360    5.0160    5.9790 C.3     2  LIG2       -0.0593
     14    C       28.2340    0.4160    2.2510 C.3     2  LIG2       -0.0498
     15    C       25.8420    1.3640    2.2520 C.3     2  LIG2       -0.0621
     16    C       29.5490    0.7000    6.9380 C.3     2  LIG2       -0.0358
     17    H       26.9510    2.3510    6.2570 H       2  LIG2        0.0312
     18    H       29.0800    3.7180    6.3550 H       2  LIG2        0.0309
     19    H       26.3890    0.9080    4.6400 H       2  LIG2        0.0310
     20    H       27.8510   -0.4800    5.3860 H       2  LIG2        0.0331
     21    H       29.5240    2.9250    3.4060 H       2  LIG2        0.0269
     22    H       30.5840    3.8290    4.4130 H       2  LIG2        0.0269
     23    H       27.6600    2.4150    2.4690 H       2  LIG2        0.0301
     24    H       29.3930   -1.1240    3.2210 H       2  LIG2        0.0269
     25    H       27.6660   -1.3560    3.3340 H       2  LIG2        0.0269
     26    H       31.0830    1.3660    3.9100 H       2  LIG2        0.0293
     27    H       31.3710    1.9580    5.5150 H       2  LIG2        0.0293
     28    H       27.3820    5.7810    3.5530 H       2  LIG2        0.0235
     29    H       26.3360    4.4600    3.0740 H       2  LIG2        0.0235
     30    H       28.0820    4.3910    2.8280 H       2  LIG2        0.0235
     31    H       27.1640    6.0190    5.9550 H       2  LIG2        0.0235
     32    H       26.8490    4.6460    6.9980 H       2  LIG2        0.0235
     33    H       25.6670    5.1030    5.7830 H       2  LIG2        0.0235
     34    H       27.8490   -0.0670    1.3510 H       2  LIG2        0.0268
     35    H       29.1840    0.8790    1.9790 H       2  LIG2        0.0268
     36    H       25.3950    0.3930    2.4750 H       2  LIG2        0.0233
     37    H       25.8350    1.4890    1.1690 H       2  LIG2        0.0233
     38    H       25.1950    2.1330    2.6750 H       2  LIG2        0.0233
     39    H       28.9110    1.5350    7.2110 H       2  LIG2        0.0257
     40    H       30.5020    0.8610    7.4470 H       2  LIG2        0.0257
     41    H       29.0980   -0.1860    7.3900 H       2  LIG2        0.0257
     42    H       31.4730   -0.3240    5.5720 H       2  LIG2        0.2102
@<TRIPOS>BOND
     1    37    15    1
     2    34    14    1
     3    35    14    1
     4    14     8    1
     5    14    10    1
     6    15    36    1
     7    15    38    1
     8    15     8    1
     9    23     8    1
    10     8     5    1
    11    30    12    1
    12    29    12    1
    13    24    10    1
    14    25    10    1
    15    10     6    1
    16    21     7    1
    17    12    28    1
    18    12     3    1
    19    26    11    1
    20     5    19    1
    21     5     6    1
    22     5     2    1
    23    22     7    1
    24     7    11    1
    25     7     4    1
    26     6    20    1
    27     6     9    1
    28    11     9    1
    29    11    27    1
    30     3     2    1
    31     3     4    1
    32     3    13    1
    33     2     4    1
    34     2    17    1
    35     1     9    1
    36     1    42    1
    37     4    18    1
    38     9    16    1
    39    33    13    1
    40    31    13    1
    41    13    32    1
    42    16    39    1
    43    16    41    1
    44    16    40    1
