@<TRIPOS>MOLECULE
11996452_10_run_1.pdb
 42 44 0 0 0
SMALL
GASTEIGER

@<TRIPOS>ATOM
      1    O       26.5390    4.4480    3.1500 O.3     2  LIG2       -0.3886
      2    C       27.7280    0.4120    4.9480 C.3     2  LIG2       -0.0289
      3    C       28.0000   -0.3670    3.6710 C.3     2  LIG2       -0.0284
      4    C       26.5960    0.1550    3.9290 C.3     2  LIG2       -0.0319
      5    C       28.2120    1.8480    5.3440 C.3     2  LIG2       -0.0294
      6    C       28.0080    3.0560    4.3910 C.3     2  LIG2       -0.0090
      7    C       25.9570    1.3130    3.1260 C.3     2  LIG2       -0.0468
      8    C       29.6630    1.9550    5.9070 C.3     2  LIG2       -0.0404
      9    C       26.5430    3.6030    4.2900 C.3     2  LIG2        0.0664
     10    C       29.0800    4.0670    4.8340 C.3     2  LIG2       -0.0471
     11    C       25.4930    2.4930    4.0030 C.3     2  LIG2       -0.0237
     12    C       28.8440    0.1500    2.4810 C.3     2  LIG2       -0.0593
     13    C       28.2090   -1.8830    3.8570 C.3     2  LIG2       -0.0593
     14    C       30.2690    3.2080    5.2540 C.3     2  LIG2       -0.0498
     15    C       30.5670    0.7180    5.7340 C.3     2  LIG2       -0.0621
     16    C       26.0720    4.4600    5.4890 C.3     2  LIG2       -0.0358
     17    H       27.6850   -0.1930    5.8550 H       2  LIG2        0.0312
     18    H       25.8500   -0.6020    4.1730 H       2  LIG2        0.0309
     19    H       27.5810    2.0810    6.2030 H       2  LIG2        0.0310
     20    H       28.3180    2.7640    3.3950 H       2  LIG2        0.0331
     21    H       26.5760    1.6620    2.3030 H       2  LIG2        0.0269
     22    H       25.0690    0.9060    2.6390 H       2  LIG2        0.0269
     23    H       29.6000    2.1430    6.9810 H       2  LIG2        0.0301
     24    H       29.3490    4.7590    4.0350 H       2  LIG2        0.0269
     25    H       28.7510    4.6620    5.6850 H       2  LIG2        0.0269
     26    H       24.6000    2.9380    3.5580 H       2  LIG2        0.0293
     27    H       25.1420    2.0780    4.9490 H       2  LIG2        0.0293
     28    H       28.5990   -0.4120    1.5790 H       2  LIG2        0.0235
     29    H       29.9080    0.0070    2.6610 H       2  LIG2        0.0235
     30    H       28.7070    1.1890    2.2160 H       2  LIG2        0.0235
     31    H       27.9470   -2.4310    2.9500 H       2  LIG2        0.0235
     32    H       27.5980   -2.2900    4.6640 H       2  LIG2        0.0235
     33    H       29.2480   -2.1080    4.0960 H       2  LIG2        0.0235
     34    H       30.9250    3.7470    5.9380 H       2  LIG2        0.0268
     35    H       30.8640    2.9430    4.3780 H       2  LIG2        0.0268
     36    H       30.7340    0.4770    4.6860 H       2  LIG2        0.0233
     37    H       30.1410   -0.1610    6.2180 H       2  LIG2        0.0233
     38    H       31.5460    0.8880    6.1840 H       2  LIG2        0.0233
     39    H       26.1480    3.9110    6.4290 H       2  LIG2        0.0257
     40    H       25.0310    4.7650    5.3760 H       2  LIG2        0.0257
     41    H       26.6510    5.3770    5.5970 H       2  LIG2        0.0257
     42    H       27.1410    5.1790    3.3110 H       2  LIG2        0.2102
@<TRIPOS>BOND
     1    28    12    1
     2    30    12    1
     3    21     7    1
     4    12    29    1
     5    12     3    1
     6    22     7    1
     7    31    13    1
     8     7     4    1
     9     7    11    1
    10     1    42    1
    11     1     9    1
    12    20     6    1
    13    26    11    1
    14     3    13    1
    15     3     4    1
    16     3     2    1
    17    13    33    1
    18    13    32    1
    19     4    18    1
    20     4     2    1
    21    11     9    1
    22    11    27    1
    23    24    10    1
    24     9     6    1
    25     9    16    1
    26    35    14    1
    27     6    10    1
    28     6     5    1
    29    36    15    1
    30    10    14    1
    31    10    25    1
    32     2     5    1
    33     2    17    1
    34    14     8    1
    35    14    34    1
    36     5     8    1
    37     5    19    1
    38    40    16    1
    39    16    41    1
    40    16    39    1
    41    15     8    1
    42    15    38    1
    43    15    37    1
    44     8    23    1
@<TRIPOS>MOLECULE
11996452_10_run_9.pdb
 42 44 0 0 0
SMALL
GASTEIGER

@<TRIPOS>ATOM
      1    O       28.9610    0.1500    2.9100 O.3     2  LIG2       -0.3886
      2    C       27.3340    3.7290    5.2510 C.3     2  LIG2       -0.0289
      3    C       27.8940    4.8630    4.4070 C.3     2  LIG2       -0.0284
      4    C       28.8600    3.9200    5.1050 C.3     2  LIG2       -0.0319
      5    C       26.5860    2.4350    4.7850 C.3     2  LIG2       -0.0294
      6    C       27.1800    1.5170    3.6840 C.3     2  LIG2       -0.0090
      7    C       29.7330    2.8860    4.3550 C.3     2  LIG2       -0.0468
      8    C       25.0660    2.5920    4.4730 C.3     2  LIG2       -0.0404
      9    C       28.3960    0.6280    4.1210 C.3     2  LIG2        0.0664
     10    C       25.9590    0.7660    3.1250 C.3     2  LIG2       -0.0471
     11    C       29.5200    1.4350    4.8290 C.3     2  LIG2       -0.0237
     12    C       27.8180    4.9380    2.8630 C.3     2  LIG2       -0.0593
     13    C       27.7530    6.2710    5.0190 C.3     2  LIG2       -0.0593
     14    C       24.8200    1.7790    3.1920 C.3     2  LIG2       -0.0498
     15    C       24.5280    4.0330    4.3560 C.3     2  LIG2       -0.0621
     16    C       28.0360   -0.6120    4.9730 C.3     2  LIG2       -0.0358
     17    H       26.9170    4.0350    6.2120 H       2  LIG2        0.0312
     18    H       29.4060    4.3450    5.9490 H       2  LIG2        0.0309
     19    H       26.6060    1.8150    5.6830 H       2  LIG2        0.0310
     20    H       27.5070    2.1370    2.8590 H       2  LIG2        0.0331
     21    H       29.6520    2.9560    3.2720 H       2  LIG2        0.0269
     22    H       30.7730    3.1430    4.5620 H       2  LIG2        0.0269
     23    H       24.5000    2.1160    5.2770 H       2  LIG2        0.0301
     24    H       26.1220    0.4150    2.1050 H       2  LIG2        0.0269
     25    H       25.7010   -0.1010    3.7320 H       2  LIG2        0.0269
     26    H       30.4650    0.8930    4.7520 H       2  LIG2        0.0293
     27    H       29.3170    1.4680    5.9010 H       2  LIG2        0.0293
     28    H       28.5740    5.6280    2.4870 H       2  LIG2        0.0235
     29    H       26.8530    5.3200    2.5340 H       2  LIG2        0.0235
     30    H       27.9870    4.0120    2.3330 H       2  LIG2        0.0235
     31    H       28.5240    6.9440    4.6420 H       2  LIG2        0.0235
     32    H       27.8410    6.2610    6.1070 H       2  LIG2        0.0235
     33    H       26.7830    6.7060    4.7800 H       2  LIG2        0.0235
     34    H       23.8490    1.2840    3.2040 H       2  LIG2        0.0268
     35    H       24.8440    2.4230    2.3100 H       2  LIG2        0.0268
     36    H       24.9980    4.5800    3.5420 H       2  LIG2        0.0233
     37    H       24.6860    4.5960    5.2760 H       2  LIG2        0.0233
     38    H       23.4540    4.0300    4.1650 H       2  LIG2        0.0233
     39    H       27.4970   -0.3340    5.8800 H       2  LIG2        0.0257
     40    H       28.9310   -1.1550    5.2820 H       2  LIG2        0.0257
     41    H       27.4170   -1.3250    4.4280 H       2  LIG2        0.0257
     42    H       28.3190   -0.4190    2.4790 H       2  LIG2        0.2102
@<TRIPOS>BOND
     1    24    10    1
     2    35    14    1
     3    30    12    1
     4    42     1    1
     5    28    12    1
     6    29    12    1
     7    20     6    1
     8    12     3    1
     9     1     9    1
    10    10    14    1
    11    10     6    1
    12    10    25    1
    13    14    34    1
    14    14     8    1
    15    21     7    1
    16    36    15    1
    17     6     9    1
    18     6     5    1
    19     9    11    1
    20     9    16    1
    21    38    15    1
    22     7    22    1
    23     7    11    1
    24     7     4    1
    25    15     8    1
    26    15    37    1
    27     3    13    1
    28     3     4    1
    29     3     2    1
    30    41    16    1
    31     8     5    1
    32     8    23    1
    33    31    13    1
    34    26    11    1
    35    33    13    1
    36     5     2    1
    37     5    19    1
    38    11    27    1
    39    16    40    1
    40    16    39    1
    41    13    32    1
    42     4     2    1
    43     4    18    1
    44     2    17    1
@<TRIPOS>MOLECULE
11996452_10_run_8.pdb
 42 44 0 0 0
SMALL
GASTEIGER

@<TRIPOS>ATOM
      1    O       26.8880    5.7300    6.3220 O.3     2  LIG2       -0.3886
      2    C       27.3630    2.4550    3.1610 C.3     2  LIG2       -0.0289
      3    C       28.2040    1.4620    3.9460 C.3     2  LIG2       -0.0284
      4    C       28.7760    2.8380    3.6540 C.3     2  LIG2       -0.0319
      5    C       26.0670    3.2130    3.6070 C.3     2  LIG2       -0.0294
      6    C       26.0180    4.0040    4.9410 C.3     2  LIG2       -0.0090
      7    C       28.9840    3.9230    4.7370 C.3     2  LIG2       -0.0468
      8    C       24.7320    2.4140    3.5050 C.3     2  LIG2       -0.0404
      9    C       26.7920    5.3680    4.9520 C.3     2  LIG2        0.0664
     10    C       24.5190    4.0730    5.2800 C.3     2  LIG2       -0.0471
     11    C       28.2540    5.2470    4.4390 C.3     2  LIG2       -0.0237
     12    C       27.9110    1.0040    5.3960 C.3     2  LIG2       -0.0593
     13    C       28.7820    0.2930    3.1230 C.3     2  LIG2       -0.0593
     14    C       23.9520    2.7450    4.7870 C.3     2  LIG2       -0.0498
     15    C       24.8490    0.8930    3.2760 C.3     2  LIG2       -0.0621
     16    C       26.0850    6.5360    4.2250 C.3     2  LIG2       -0.0358
     17    H       27.2830    2.2460    2.0920 H       2  LIG2        0.0312
     18    H       29.5840    2.8670    2.9200 H       2  LIG2        0.0309
     19    H       25.9700    3.9840    2.8400 H       2  LIG2        0.0310
     20    H       26.4360    3.3840    5.7240 H       2  LIG2        0.0331
     21    H       28.7610    3.5760    5.7440 H       2  LIG2        0.0269
     22    H       30.0530    4.1430    4.7610 H       2  LIG2        0.0269
     23    H       24.1600    2.8090    2.6620 H       2  LIG2        0.0301
     24    H       24.3440    4.2110    6.3480 H       2  LIG2        0.0269
     25    H       24.0210    4.8900    4.7590 H       2  LIG2        0.0269
     26    H       28.8490    6.0770    4.8250 H       2  LIG2        0.0293
     27    H       28.2660    5.3890    3.3570 H       2  LIG2        0.0293
     28    H       28.8140    0.5920    5.8450 H       2  LIG2        0.0235
     29    H       27.1610    0.2140    5.4160 H       2  LIG2        0.0235
     30    H       27.5760    1.7720    6.0790 H       2  LIG2        0.0235
     31    H       29.6930   -0.0980    3.5800 H       2  LIG2        0.0235
     32    H       29.0380    0.5910    2.1050 H       2  LIG2        0.0235
     33    H       28.0660   -0.5240    3.0490 H       2  LIG2        0.0235
     34    H       22.8790    2.8160    4.6050 H       2  LIG2        0.0268
     35    H       24.1000    1.9740    5.5460 H       2  LIG2        0.0268
     36    H       25.3650    0.3960    4.0950 H       2  LIG2        0.0233
     37    H       25.3850    0.6670    2.3540 H       2  LIG2        0.0233
     38    H       23.8630    0.4370    3.1930 H       2  LIG2        0.0233
     39    H       25.8760    6.2920    3.1820 H       2  LIG2        0.0257
     40    H       26.6990    7.4380    4.2290 H       2  LIG2        0.0257
     41    H       25.1390    6.8060    4.6940 H       2  LIG2        0.0257
     42    H       27.3050    6.5930    6.3790 H       2  LIG2        0.2102
@<TRIPOS>BOND
     1    17     2    1
     2    32    13    1
     3    37    15    1
     4    23     8    1
     5    19     5    1
     6    18     4    1
     7    33    13    1
     8    13    31    1
     9    13     3    1
    10     2     5    1
    11     2     4    1
    12     2     3    1
    13    39    16    1
    14    38    15    1
    15    15     8    1
    16    15    36    1
    17    27    11    1
    18     8     5    1
    19     8    14    1
    20     5     6    1
    21     4     3    1
    22     4     7    1
    23     3    12    1
    24    16    40    1
    25    16    41    1
    26    16     9    1
    27    11     7    1
    28    11    26    1
    29    11     9    1
    30    34    14    1
    31     7    22    1
    32     7    21    1
    33    25    10    1
    34    14    10    1
    35    14    35    1
    36     6     9    1
    37     6    10    1
    38     6    20    1
    39     9     1    1
    40    10    24    1
    41    12    29    1
    42    12    28    1
    43    12    30    1
    44     1    42    1
@<TRIPOS>MOLECULE
11996452_10_run_1.pdb
 42 44 0 0 0
SMALL
GASTEIGER

@<TRIPOS>ATOM
      1    O       25.0150    1.8930    5.1860 O.3     2  LIG2       -0.3886
      2    C       29.4710    2.1300    4.1700 C.3     2  LIG2       -0.0289
      3    C       30.0400    2.3430    5.5630 C.3     2  LIG2       -0.0284
      4    C       29.1080    3.3930    4.9820 C.3     2  LIG2       -0.0319
      5    C       28.4060    1.0850    3.6930 C.3     2  LIG2       -0.0294
      6    C       27.0490    0.9280    4.4300 C.3     2  LIG2       -0.0090
      7    C       27.6690    3.6340    5.4960 C.3     2  LIG2       -0.0468
      8    C       28.9340   -0.3540    3.4040 C.3     2  LIG2       -0.0404
      9    C       26.0040    2.0700    4.1830 C.3     2  LIG2        0.0664
     10    C       26.5920   -0.4970    4.0710 C.3     2  LIG2       -0.0471
     11    C       26.5880    3.4940    4.4060 C.3     2  LIG2       -0.0237
     12    C       29.6450    1.5230    6.8160 C.3     2  LIG2       -0.0593
     13    C       31.5360    2.7110    5.6140 C.3     2  LIG2       -0.0593
     14    C       27.8830   -1.3070    3.9950 C.3     2  LIG2       -0.0498
     15    C       30.3570   -0.6830    3.9000 C.3     2  LIG2       -0.0621
     16    C       25.2780    2.0190    2.8180 C.3     2  LIG2       -0.0358
     17    H       30.1800    2.2880    3.3550 H       2  LIG2        0.0312
     18    H       29.5790    4.3360    4.6990 H       2  LIG2        0.0309
     19    H       28.1280    1.4650    2.7080 H       2  LIG2        0.0310
     20    H       27.2390    0.8830    5.4950 H       2  LIG2        0.0331
     21    H       27.4170    3.0380    6.3710 H       2  LIG2        0.0269
     22    H       27.6310    4.6640    5.8560 H       2  LIG2        0.0269
     23    H       28.9420   -0.5040    2.3220 H       2  LIG2        0.0301
     24    H       25.9060   -0.9080    4.8130 H       2  LIG2        0.0269
     25    H       26.0900   -0.5320    3.1050 H       2  LIG2        0.0269
     26    H       25.7780    4.1950    4.6140 H       2  LIG2        0.0293
     27    H       27.0200    3.8540    3.4710 H       2  LIG2        0.0293
     28    H       29.9020    2.0780    7.7190 H       2  LIG2        0.0235
     29    H       30.1920    0.5820    6.8590 H       2  LIG2        0.0235
     30    H       28.5970    1.2830    6.9160 H       2  LIG2        0.0235
     31    H       31.7720    3.2770    6.5170 H       2  LIG2        0.0235
     32    H       31.8410    3.3250    4.7640 H       2  LIG2        0.0235
     33    H       32.1590    1.8180    5.6050 H       2  LIG2        0.0235
     34    H       27.7540   -2.2000    3.3840 H       2  LIG2        0.0268
     35    H       28.1730   -1.6380    4.9940 H       2  LIG2        0.0268
     36    H       30.4400   -0.6090    4.9820 H       2  LIG2        0.0233
     37    H       31.0990   -0.0160    3.4590 H       2  LIG2        0.0233
     38    H       30.6370   -1.6990    3.6230 H       2  LIG2        0.0233
     39    H       25.9840    2.0420    1.9860 H       2  LIG2        0.0257
     40    H       24.6040    2.8680    2.6930 H       2  LIG2        0.0257
     41    H       24.6670    1.1230    2.7050 H       2  LIG2        0.0257
     42    H       25.4490    1.8920    6.0430 H       2  LIG2        0.2102
@<TRIPOS>BOND
     1    39    16    1
     2    23     8    1
     3    40    16    1
     4    41    16    1
     5    19     5    1
     6    16     9    1
     7    25    10    1
     8    17     2    1
     9    34    14    1
    10     8     5    1
    11     8    15    1
    12     8    14    1
    13    37    15    1
    14    27    11    1
    15    38    15    1
    16     5     2    1
    17     5     6    1
    18    15    36    1
    19    14    10    1
    20    14    35    1
    21    10     6    1
    22    10    24    1
    23     2     4    1
    24     2     3    1
    25     9    11    1
    26     9     6    1
    27     9     1    1
    28    11    26    1
    29    11     7    1
    30     6    20    1
    31    18     4    1
    32    32    13    1
    33     4     7    1
    34     4     3    1
    35     1    42    1
    36     7    22    1
    37     7    21    1
    38     3    13    1
    39     3    12    1
    40    33    13    1
    41    13    31    1
    42    12    29    1
    43    12    30    1
    44    12    28    1
@<TRIPOS>MOLECULE
11996452_10_run_12.pdb
 42 44 0 0 0
SMALL
GASTEIGER

@<TRIPOS>ATOM
      1    O       31.3490    2.5570    4.2390 O.3     2  LIG2       -0.3886
      2    C       26.9810    1.3420    4.8540 C.3     2  LIG2       -0.0289
      3    C       26.3840    1.8700    3.5590 C.3     2  LIG2       -0.0284
      4    C       27.0060    2.8540    4.5350 C.3     2  LIG2       -0.0319
      5    C       28.2780    0.4910    5.0610 C.3     2  LIG2       -0.0294
      6    C       29.6340    0.9280    4.4440 C.3     2  LIG2       -0.0090
      7    C       28.3350    3.5980    4.2660 C.3     2  LIG2       -0.0468
      8    C       28.1430   -1.0440    4.8140 C.3     2  LIG2       -0.0404
      9    C       30.3430    2.1370    5.1470 C.3     2  LIG2        0.0664
     10    C       30.4440   -0.3760    4.3600 C.3     2  LIG2       -0.0471
     11    C       29.4080    3.3630    5.3470 C.3     2  LIG2       -0.0237
     12    C       26.9860    1.6460    2.1500 C.3     2  LIG2       -0.0593
     13    C       24.8440    1.8570    3.4910 C.3     2  LIG2       -0.0593
     14    C       29.4100   -1.4530    4.0460 C.3     2  LIG2       -0.0498
     15    C       26.8580   -1.5210    4.1070 C.3     2  LIG2       -0.0621
     16    C       31.0490    1.8040    6.4830 C.3     2  LIG2       -0.0358
     17    H       26.2500    1.0360    5.6050 H       2  LIG2        0.0312
     18    H       26.3040    3.5000    5.0650 H       2  LIG2        0.0309
     19    H       28.4420    0.5690    6.1370 H       2  LIG2        0.0310
     20    H       29.4680    1.2020    3.4100 H       2  LIG2        0.0331
     21    H       28.7390    3.4140    3.2730 H       2  LIG2        0.0269
     22    H       28.1040    4.6650    4.2670 H       2  LIG2        0.0269
     23    H       28.1680   -1.5500    5.7820 H       2  LIG2        0.0301
     24    H       31.2190   -0.3310    3.5930 H       2  LIG2        0.0269
     25    H       30.9330   -0.6140    5.3040 H       2  LIG2        0.0269
     26    H       30.0090    4.2690    5.4560 H       2  LIG2        0.0293
     27    H       28.8920    3.2680    6.3040 H       2  LIG2        0.0293
     28    H       26.5990    2.3940    1.4580 H       2  LIG2        0.0235
     29    H       26.7050    0.6730    1.7520 H       2  LIG2        0.0235
     30    H       28.0610    1.7170    2.0760 H       2  LIG2        0.0235
     31    H       24.4730    2.6190    2.8040 H       2  LIG2        0.0235
     32    H       24.3840    2.0520    4.4620 H       2  LIG2        0.0235
     33    H       24.4760    0.8900    3.1490 H       2  LIG2        0.0235
     34    H       29.7640   -2.4410    4.3420 H       2  LIG2        0.0268
     35    H       29.2220   -1.4860    2.9710 H       2  LIG2        0.0268
     36    H       26.7650   -1.1070    3.1050 H       2  LIG2        0.0233
     37    H       25.9650   -1.2460    4.6690 H       2  LIG2        0.0233
     38    H       26.8510   -2.6070    4.0090 H       2  LIG2        0.0233
     39    H       30.3570    1.3710    7.2060 H       2  LIG2        0.0257
     40    H       31.4770    2.6980    6.9400 H       2  LIG2        0.0257
     41    H       31.8720    1.1010    6.3540 H       2  LIG2        0.0257
     42    H       31.9920    1.8500    4.1500 H       2  LIG2        0.2102
@<TRIPOS>BOND
     1    28    12    1
     2    29    12    1
     3    30    12    1
     4    12     3    1
     5    31    13    1
     6    35    14    1
     7    36    15    1
     8    33    13    1
     9    21     7    1
    10    20     6    1
    11    13     3    1
    12    13    32    1
    13     3     4    1
    14     3     2    1
    15    24    10    1
    16    38    15    1
    17    14    34    1
    18    14    10    1
    19    14     8    1
    20    15    37    1
    21    15     8    1
    22    42     1    1
    23     1     9    1
    24     7    22    1
    25     7     4    1
    26     7    11    1
    27    10     6    1
    28    10    25    1
    29     6     5    1
    30     6     9    1
    31     4     2    1
    32     4    18    1
    33     8     5    1
    34     8    23    1
    35     2     5    1
    36     2    17    1
    37     5    19    1
    38     9    11    1
    39     9    16    1
    40    11    26    1
    41    11    27    1
    42    41    16    1
    43    16    40    1
    44    16    39    1
@<TRIPOS>MOLECULE
11996452_10_run_22.pdb
 42 44 0 0 0
SMALL
GASTEIGER

@<TRIPOS>ATOM
      1    O       26.3490   -0.8970    5.2940 O.3     2  LIG2       -0.3886
      2    C       28.3980    2.8590    3.6740 C.3     2  LIG2       -0.0289
      3    C       27.4750    3.9220    4.2480 C.3     2  LIG2       -0.0284
      4    C       26.9120    2.9190    3.2550 C.3     2  LIG2       -0.0319
      5    C       29.0350    1.6210    4.3900 C.3     2  LIG2       -0.0294
      6    C       28.1640    0.6310    5.2090 C.3     2  LIG2       -0.0090
      7    C       25.9200    1.7990    3.6450 C.3     2  LIG2       -0.0468
      8    C       30.3200    1.8970    5.2320 C.3     2  LIG2       -0.0404
      9    C       27.2710   -0.3450    4.3670 C.3     2  LIG2        0.0664
     10    C       29.1600   -0.0290    6.1780 C.3     2  LIG2       -0.0471
     11    C       26.4140    0.3810    3.2930 C.3     2  LIG2       -0.0237
     12    C       26.9800    3.9670    5.7140 C.3     2  LIG2       -0.0593
     13    C       27.7070    5.3510    3.7180 C.3     2  LIG2       -0.0593
     14    C       30.1540    1.0770    6.5210 C.3     2  LIG2       -0.0498
     15    C       30.6520    3.3740    5.5240 C.3     2  LIG2       -0.0621
     16    C       28.0200   -1.5310    3.7140 C.3     2  LIG2       -0.0358
     17    H       29.1080    3.2220    2.9270 H       2  LIG2        0.0312
     18    H       26.6750    3.3170    2.2670 H       2  LIG2        0.0309
     19    H       29.3960    1.0230    3.5510 H       2  LIG2        0.0310
     20    H       27.5080    1.2020    5.8530 H       2  LIG2        0.0331
     21    H       25.5970    1.8490    4.6830 H       2  LIG2        0.0269
     22    H       25.0070    1.9720    3.0730 H       2  LIG2        0.0269
     23    H       31.1770    1.4890    4.6920 H       2  LIG2        0.0301
     24    H       28.6690   -0.4160    7.0720 H       2  LIG2        0.0269
     25    H       29.6940   -0.8570    5.7130 H       2  LIG2        0.0269
     26    H       25.5570   -0.2390    3.0260 H       2  LIG2        0.0293
     27    H       26.9890    0.4570    2.3680 H       2  LIG2        0.0293
     28    H       26.0830    4.5820    5.7850 H       2  LIG2        0.0235
     29    H       27.7240    4.4190    6.3680 H       2  LIG2        0.0235
     30    H       26.7110    3.0170    6.1550 H       2  LIG2        0.0235
     31    H       26.7960    5.9480    3.7840 H       2  LIG2        0.0235
     32    H       28.0190    5.3600    2.6720 H       2  LIG2        0.0235
     33    H       28.4820    5.8590    4.2900 H       2  LIG2        0.0235
     34    H       31.1020    0.6650    6.8660 H       2  LIG2        0.0268
     35    H       29.7570    1.6950    7.3290 H       2  LIG2        0.0268
     36    H       29.8740    3.8610    6.1080 H       2  LIG2        0.0233
     37    H       30.7900    3.9440    4.6050 H       2  LIG2        0.0233
     38    H       31.5790    3.4570    6.0920 H       2  LIG2        0.0233
     39    H       28.8250   -1.1870    3.0620 H       2  LIG2        0.0257
     40    H       27.3490   -2.1390    3.1050 H       2  LIG2        0.0257
     41    H       28.4590   -2.2020    4.4520 H       2  LIG2        0.0257
     42    H       25.8770   -0.1760    5.7190 H       2  LIG2        0.2102
@<TRIPOS>BOND
     1    18     4    1
     2    27    11    1
     3    32    13    1
     4    17     2    1
     5    26    11    1
     6    39    16    1
     7    22     7    1
     8    40    16    1
     9     4     7    1
    10     4     2    1
    11     4     3    1
    12    11     7    1
    13    11     9    1
    14    19     5    1
    15     7    21    1
    16     2     3    1
    17     2     5    1
    18    16     9    1
    19    16    41    1
    20    13    31    1
    21    13     3    1
    22    13    33    1
    23     3    12    1
    24     9     6    1
    25     9     1    1
    26     5     6    1
    27     5     8    1
    28    37    15    1
    29    23     8    1
    30     6    20    1
    31     6    10    1
    32     8    15    1
    33     8    14    1
    34     1    42    1
    35    15    38    1
    36    15    36    1
    37    25    10    1
    38    12    28    1
    39    12    30    1
    40    12    29    1
    41    10    14    1
    42    10    24    1
    43    14    34    1
    44    14    35    1
@<TRIPOS>MOLECULE
11996452_10_run_9.pdb
 42 44 0 0 0
SMALL
GASTEIGER

@<TRIPOS>ATOM
      1    O       27.6720   -0.2060    4.8000 O.3     2  LIG2       -0.3886
      2    C       25.7950    3.7090    3.3550 C.3     2  LIG2       -0.0289
      3    C       24.7060    3.8720    4.4030 C.3     2  LIG2       -0.0284
      4    C       24.6630    2.6660    3.4810 C.3     2  LIG2       -0.0319
      5    C       27.3080    3.3580    3.5590 C.3     2  LIG2       -0.0294
      6    C       27.7410    2.1350    4.4110 C.3     2  LIG2       -0.0090
      7    C       24.9480    1.2210    3.9540 C.3     2  LIG2       -0.0468
      8    C       28.2430    4.5410    3.9570 C.3     2  LIG2       -0.0404
      9    C       27.5290    0.7320    3.7440 C.3     2  LIG2        0.0664
     10    C       29.1800    2.4700    4.8400 C.3     2  LIG2       -0.0471
     11    C       26.0930    0.5300    3.1850 C.3     2  LIG2       -0.0237
     12    C       24.9120    3.7110    5.9290 C.3     2  LIG2       -0.0593
     13    C       23.6790    4.9860    4.1170 C.3     2  LIG2       -0.0593
     14    C       29.1800    3.9830    5.0400 C.3     2  LIG2       -0.0498
     15    C       27.5550    5.8480    4.4040 C.3     2  LIG2       -0.0621
     16    C       28.5630    0.3520    2.6580 C.3     2  LIG2       -0.0358
     17    H       25.7150    4.3830    2.5010 H       2  LIG2        0.0312
     18    H       23.8730    2.6750    2.7280 H       2  LIG2        0.0309
     19    H       27.6280    3.1000    2.5480 H       2  LIG2        0.0310
     20    H       27.1810    2.1460    5.3370 H       2  LIG2        0.0331
     21    H       25.0990    1.1390    5.0280 H       2  LIG2        0.0269
     22    H       24.0410    0.6430    3.7670 H       2  LIG2        0.0269
     23    H       28.8580    4.7980    3.0910 H       2  LIG2        0.0301
     24    H       29.4690    1.9470    5.7530 H       2  LIG2        0.0269
     25    H       29.9060    2.2110    4.0700 H       2  LIG2        0.0269
     26    H       25.8760   -0.5370    3.1050 H       2  LIG2        0.0293
     27    H       26.0560    0.8890    2.1550 H       2  LIG2        0.0293
     28    H       23.9550    3.5230    6.4150 H       2  LIG2        0.0235
     29    H       25.3160    4.6210    6.3700 H       2  LIG2        0.0235
     30    H       25.5550    2.8990    6.2390 H       2  LIG2        0.0235
     31    H       22.7240    4.7760    4.6010 H       2  LIG2        0.0235
     32    H       23.4780    5.1010    3.0500 H       2  LIG2        0.0235
     33    H       24.0350    5.9490    4.4830 H       2  LIG2        0.0235
     34    H       30.1870    4.3930    4.9580 H       2  LIG2        0.0268
     35    H       28.8120    4.2260    6.0390 H       2  LIG2        0.0268
     36    H       26.9520    5.7070    5.2990 H       2  LIG2        0.0233
     37    H       26.9100    6.2490    3.6230 H       2  LIG2        0.0233
     38    H       28.2950    6.6150    4.6320 H       2  LIG2        0.0233
     39    H       28.5910    1.0900    1.8550 H       2  LIG2        0.0257
     40    H       28.3270   -0.6120    2.2040 H       2  LIG2        0.0257
     41    H       29.5730    0.2640    3.0590 H       2  LIG2        0.0257
     42    H       26.9960   -0.0270    5.4590 H       2  LIG2        0.2102
@<TRIPOS>BOND
     1    39    16    1
     2    27    11    1
     3    40    16    1
     4    17     2    1
     5    19     5    1
     6    16    41    1
     7    16     9    1
     8    18     4    1
     9    32    13    1
    10    23     8    1
    11    26    11    1
    12    11     9    1
    13    11     7    1
    14     2     4    1
    15     2     5    1
    16     2     3    1
    17     4     7    1
    18     4     3    1
    19     5     8    1
    20     5     6    1
    21    37    15    1
    22     9     6    1
    23     9     1    1
    24    22     7    1
    25     7    21    1
    26     8    15    1
    27     8    14    1
    28    25    10    1
    29    13     3    1
    30    13    33    1
    31    13    31    1
    32     3    12    1
    33    15    38    1
    34    15    36    1
    35     6    10    1
    36     6    20    1
    37     1    42    1
    38    10    14    1
    39    10    24    1
    40    34    14    1
    41    14    35    1
    42    12    30    1
    43    12    29    1
    44    12    28    1
@<TRIPOS>MOLECULE
11996452_10_run_14.pdb
 42 44 0 0 0
SMALL
GASTEIGER

@<TRIPOS>ATOM
      1    O       23.4310    3.2360    2.8520 O.3     2  LIG2       -0.3886
      2    C       27.2640    3.5560    5.3310 C.3     2  LIG2       -0.0289
      3    C       28.2660    3.0160    4.3230 C.3     2  LIG2       -0.0284
      4    C       27.1580    2.1020    4.8180 C.3     2  LIG2       -0.0319
      5    C       26.1360    4.6210    5.1190 C.3     2  LIG2       -0.0294
      6    C       25.1170    4.4920    3.9560 C.3     2  LIG2       -0.0090
      7    C       25.9730    1.6440    3.9360 C.3     2  LIG2       -0.0468
      8    C       26.5820    6.1150    5.1670 C.3     2  LIG2       -0.0404
      9    C       24.0130    3.3940    4.1370 C.3     2  LIG2        0.0664
     10    C       24.6130    5.9300    3.7400 C.3     2  LIG2       -0.0471
     11    C       24.5910    2.0020    4.5190 C.3     2  LIG2       -0.0237
     12    C       28.3490    3.4470    2.8390 C.3     2  LIG2       -0.0593
     13    C       29.6770    2.7410    4.8800 C.3     2  LIG2       -0.0593
     14    C       25.8270    6.8100    4.0230 C.3     2  LIG2       -0.0498
     15    C       28.0990    6.3890    5.1100 C.3     2  LIG2       -0.0621
     16    C       22.8680    3.7610    5.1110 C.3     2  LIG2       -0.0358
     17    H       27.6480    3.6650    6.3470 H       2  LIG2        0.0312
     18    H       27.4730    1.2990    5.4880 H       2  LIG2        0.0309
     19    H       25.5270    4.5010    6.0170 H       2  LIG2        0.0310
     20    H       25.6600    4.2640    3.0470 H       2  LIG2        0.0331
     21    H       26.0530    1.9690    2.9010 H       2  LIG2        0.0269
     22    H       26.0250    0.5550    3.8790 H       2  LIG2        0.0269
     23    H       26.2260    6.5490    6.1050 H       2  LIG2        0.0301
     24    H       24.2340    6.0850    2.7280 H       2  LIG2        0.0269
     25    H       23.8140    6.1900    4.4320 H       2  LIG2        0.0269
     26    H       23.8770    1.2210    4.2480 H       2  LIG2        0.0293
     27    H       24.6660    1.9310    5.6050 H       2  LIG2        0.0293
     28    H       28.8790    2.6890    2.2610 H       2  LIG2        0.0235
     29    H       28.9080    4.3750    2.7280 H       2  LIG2        0.0235
     30    H       27.4060    3.5860    2.3300 H       2  LIG2        0.0235
     31    H       30.1880    1.9720    4.2990 H       2  LIG2        0.0235
     32    H       29.6540    2.3960    5.9150 H       2  LIG2        0.0235
     33    H       30.2890    3.6420    4.8550 H       2  LIG2        0.0235
     34    H       25.5280    7.8240    4.2880 H       2  LIG2        0.0268
     35    H       26.4510    6.8810    3.1290 H       2  LIG2        0.0268
     36    H       28.5430    6.0360    4.1810 H       2  LIG2        0.0233
     37    H       28.6240    5.9110    5.9370 H       2  LIG2        0.0233
     38    H       28.3020    7.4580    5.1770 H       2  LIG2        0.0233
     39    H       23.2480    4.0040    6.1040 H       2  LIG2        0.0257
     40    H       22.1640    2.9350    5.2260 H       2  LIG2        0.0257
     41    H       22.2860    4.6150    4.7640 H       2  LIG2        0.0257
     42    H       22.6800    2.6430    2.9300 H       2  LIG2        0.2102
@<TRIPOS>BOND
     1    28    12    1
     2    30    12    1
     3    29    12    1
     4    24    10    1
     5    12     3    1
     6     1    42    1
     7     1     9    1
     8    21     7    1
     9    20     6    1
    10    35    14    1
    11    10     6    1
    12    10    14    1
    13    10    25    1
    14    22     7    1
    15     7    11    1
    16     7     4    1
    17     6     9    1
    18     6     5    1
    19    14    34    1
    20    14     8    1
    21     9    11    1
    22     9    16    1
    23    36    15    1
    24    26    11    1
    25    31    13    1
    26     3     4    1
    27     3    13    1
    28     3     2    1
    29    11    27    1
    30    41    16    1
    31     4     2    1
    32     4    18    1
    33    33    13    1
    34    13    32    1
    35    15     8    1
    36    15    38    1
    37    15    37    1
    38    16    40    1
    39    16    39    1
    40     5     8    1
    41     5     2    1
    42     5    19    1
    43     8    23    1
    44     2    17    1
@<TRIPOS>MOLECULE
11996452_10_run_9.pdb
 42 44 0 0 0
SMALL
GASTEIGER

@<TRIPOS>ATOM
      1    O       24.2850    4.6280    5.8000 O.3     2  LIG2       -0.3886
      2    C       28.1940    3.2720    3.8450 C.3     2  LIG2       -0.0289
      3    C       28.9530    2.8150    5.0810 C.3     2  LIG2       -0.0284
      4    C       28.5530    4.2760    4.9630 C.3     2  LIG2       -0.0319
      5    C       26.7200    2.9520    3.4250 C.3     2  LIG2       -0.0294
      6    C       25.5390    3.1690    4.4090 C.3     2  LIG2       -0.0090
      7    C       27.4590    4.9350    5.8360 C.3     2  LIG2       -0.0468
      8    C       26.4840    1.5760    2.7300 C.3     2  LIG2       -0.0404
      9    C       25.1210    4.6600    4.6530 C.3     2  LIG2        0.0664
     10    C       24.4370    2.2340    3.8800 C.3     2  LIG2       -0.0471
     11    C       26.3190    5.5790    5.0230 C.3     2  LIG2       -0.0237
     12    C       28.3700    1.9110    6.1940 C.3     2  LIG2       -0.0593
     13    C       30.4440    2.4950    4.8570 C.3     2  LIG2       -0.0593
     14    C       25.1870    1.0200    3.3400 C.3     2  LIG2       -0.0498
     15    C       27.6390    0.5560    2.8020 C.3     2  LIG2       -0.0621
     16    C       24.3020    5.3130    3.5140 C.3     2  LIG2       -0.0358
     17    H       28.7960    3.3490    2.9390 H       2  LIG2        0.0312
     18    H       29.3710    4.9750    4.7790 H       2  LIG2        0.0309
     19    H       26.5380    3.6800    2.6320 H       2  LIG2        0.0310
     20    H       25.8070    2.7420    5.3670 H       2  LIG2        0.0331
     21    H       27.0620    4.2730    6.6030 H       2  LIG2        0.0269
     22    H       27.9440    5.7340    6.3990 H       2  LIG2        0.0269
     23    H       26.2970    1.7550    1.6690 H       2  LIG2        0.0301
     24    H       23.7280    1.9510    4.6600 H       2  LIG2        0.0269
     25    H       23.8680    2.6920    3.0720 H       2  LIG2        0.0269
     26    H       25.9550    6.4610    5.5540 H       2  LIG2        0.0293
     27    H       26.7580    5.9800    4.1080 H       2  LIG2        0.0293
     28    H       28.9560    2.0200    7.1070 H       2  LIG2        0.0235
     29    H       28.4200    0.8600    5.9140 H       2  LIG2        0.0235
     30    H       27.3490    2.1110    6.4850 H       2  LIG2        0.0235
     31    H       31.0170    2.6230    5.7770 H       2  LIG2        0.0235
     32    H       30.8980    3.1430    4.1050 H       2  LIG2        0.0235
     33    H       30.5770    1.4680    4.5190 H       2  LIG2        0.0235
     34    H       24.5890    0.4810    2.6050 H       2  LIG2        0.0268
     35    H       25.4030    0.3250    4.1540 H       2  LIG2        0.0268
     36    H       27.8700    0.2720    3.8260 H       2  LIG2        0.0233
     37    H       28.5490    0.9490    2.3480 H       2  LIG2        0.0233
     38    H       27.3830   -0.3570    2.2640 H       2  LIG2        0.0233
     39    H       24.8380    5.2790    2.5650 H       2  LIG2        0.0257
     40    H       24.0890    6.3610    3.7290 H       2  LIG2        0.0257
     41    H       23.3380    4.8270    3.3650 H       2  LIG2        0.0257
     42    H       23.4960    4.1240    5.5870 H       2  LIG2        0.2102
@<TRIPOS>BOND
     1    23     8    1
     2    38    15    1
     3    37    15    1
     4    39    16    1
     5    34    14    1
     6    19     5    1
     7     8    15    1
     8     8    14    1
     9     8     5    1
    10    15    36    1
    11    17     2    1
    12    25    10    1
    13    14    10    1
    14    14    35    1
    15    41    16    1
    16     5     2    1
    17     5     6    1
    18    16    40    1
    19    16     9    1
    20     2     4    1
    21     2     3    1
    22    10     6    1
    23    10    24    1
    24    32    13    1
    25    27    11    1
    26     6     9    1
    27     6    20    1
    28    33    13    1
    29     9    11    1
    30     9     1    1
    31    18     4    1
    32    13     3    1
    33    13    31    1
    34     4     3    1
    35     4     7    1
    36    11    26    1
    37    11     7    1
    38     3    12    1
    39    42     1    1
    40     7    22    1
    41     7    21    1
    42    29    12    1
    43    12    30    1
    44    12    28    1
@<TRIPOS>MOLECULE
11996452_10_run_9.pdb
 42 44 0 0 0
SMALL
GASTEIGER

@<TRIPOS>ATOM
      1    O       25.4000    1.7490    1.8180 O.3     2  LIG2       -0.3886
      2    C       28.4160    1.2530    5.2240 C.3     2  LIG2       -0.0289
      3    C       29.5450    0.5700    4.4680 C.3     2  LIG2       -0.0284
      4    C       28.2040   -0.1350    4.5800 C.3     2  LIG2       -0.0319
      5    C       27.5880    2.5190    4.8180 C.3     2  LIG2       -0.0294
      6    C       26.9150    2.6250    3.4230 C.3     2  LIG2       -0.0090
      7    C       27.2410   -0.3310    3.3860 C.3     2  LIG2       -0.0468
      8    C       28.2540    3.9000    5.1060 C.3     2  LIG2       -0.0404
      9    C       25.6320    1.7480    3.2190 C.3     2  LIG2        0.0664
     10    C       26.7430    4.1380    3.2060 C.3     2  LIG2       -0.0471
     11    C       25.8360    0.2600    3.6180 C.3     2  LIG2       -0.0237
     12    C       30.0990    1.0300    3.0980 C.3     2  LIG2       -0.0593
     13    C       30.6840    0.0160    5.3470 C.3     2  LIG2       -0.0593
     14    C       27.9680    4.7640    3.8670 C.3     2  LIG2       -0.0498
     15    C       29.7540    3.8850    5.4660 C.3     2  LIG2       -0.0621
     16    C       24.3460    2.2900    3.8890 C.3     2  LIG2       -0.0358
     17    H       28.5240    1.2520    6.3100 H       2  LIG2        0.0312
     18    H       28.1830   -1.0060    5.2380 H       2  LIG2        0.0309
     19    H       26.7480    2.4840    5.5130 H       2  LIG2        0.0310
     20    H       27.6360    2.3310    2.6700 H       2  LIG2        0.0331
     21    H       27.6530    0.0100    2.4380 H       2  LIG2        0.0269
     22    H       27.1190   -1.4070    3.2520 H       2  LIG2        0.0269
     23    H       27.7380    4.3590    5.9520 H       2  LIG2        0.0301
     24    H       26.6840    4.3980    2.1480 H       2  LIG2        0.0269
     25    H       25.8440    4.5200    3.6870 H       2  LIG2        0.0269
     26    H       25.0990   -0.3620    3.1070 H       2  LIG2        0.0293
     27    H       25.6020    0.1380    4.6770 H       2  LIG2        0.0293
     28    H       30.6270    0.2080    2.6160 H       2  LIG2        0.0235
     29    H       30.8180    1.8400    3.2150 H       2  LIG2        0.0235
     30    H       29.3670    1.3620    2.3760 H       2  LIG2        0.0235
     31    H       31.1930   -0.8150    4.8550 H       2  LIG2        0.0235
     32    H       30.3230   -0.3560    6.3080 H       2  LIG2        0.0235
     33    H       31.4250    0.7850    5.5580 H       2  LIG2        0.0235
     34    H       27.7870    5.8060    4.1300 H       2  LIG2        0.0268
     35    H       28.8120    4.7480    3.1750 H       2  LIG2        0.0268
     36    H       30.3640    3.4870    4.6580 H       2  LIG2        0.0233
     37    H       29.9460    3.2880    6.3580 H       2  LIG2        0.0233
     38    H       30.1110    4.8930    5.6740 H       2  LIG2        0.0233
     39    H       24.4790    2.4220    4.9640 H       2  LIG2        0.0257
     40    H       23.5070    1.6080    3.7480 H       2  LIG2        0.0257
     41    H       24.0360    3.2500    3.4760 H       2  LIG2        0.0257
     42    H       26.1820    1.4010    1.3810 H       2  LIG2        0.2102
@<TRIPOS>BOND
     1    42     1    1
     2     1     9    1
     3    24    10    1
     4    30    12    1
     5    21     7    1
     6    28    12    1
     7    20     6    1
     8    12    29    1
     9    12     3    1
    10    26    11    1
    11    35    14    1
    12    10     6    1
    13    10    25    1
    14    10    14    1
    15     9     6    1
    16     9    11    1
    17     9    16    1
    18    22     7    1
    19     7    11    1
    20     7     4    1
    21     6     5    1
    22    41    16    1
    23    11    27    1
    24    40    16    1
    25    14    34    1
    26    14     8    1
    27    16    39    1
    28     3     4    1
    29     3     2    1
    30     3    13    1
    31     4     2    1
    32     4    18    1
    33    36    15    1
    34     5     8    1
    35     5     2    1
    36     5    19    1
    37    31    13    1
    38     8    15    1
    39     8    23    1
    40     2    17    1
    41    13    33    1
    42    13    32    1
    43    15    38    1
    44    15    37    1
