@<TRIPOS>MOLECULE
5281519_run_7.pdb
 39 39 0 0 0
SMALL
GASTEIGER

@<TRIPOS>ATOM
      1    C       27.9430    3.9670    3.8700 C.3     2  LIG2       -0.0275
      2    C       26.7670    3.0350    3.5050 C.2     2  LIG2       -0.0668
      3    C       28.5380    3.8360    5.3060 C.3     2  LIG2       -0.0283
      4    C       27.1410    1.8780    2.5520 C.3     2  LIG2       -0.0130
      5    C       29.3830    2.5870    5.5320 C.2     2  LIG2       -0.0762
      6    C       29.2370   -0.6210    4.7380 C.3     2  LIG2       -0.0286
      7    C       29.4190    0.0850    6.1160 C.3     2  LIG2       -0.0308
      8    C       28.0410   -0.0960    3.9410 C.2     2  LIG2       -0.0759
      9    C       25.5040    3.2460    3.9750 C.2     2  LIG2       -0.0762
     10    C       28.2090    0.9650    3.1200 C.2     2  LIG2       -0.0810
     11    C       28.8580    1.5050    6.1470 C.2     2  LIG2       -0.0847
     12    C       30.7730    2.6230    4.9090 C.3     2  LIG2       -0.0438
     13    C       26.6930   -0.6820    4.3400 C.3     2  LIG2       -0.0438
     14    C       25.1260    4.3840    4.9220 C.3     2  LIG2       -0.0438
     15    C       24.2870    2.3980    3.6110 C.3     2  LIG2       -0.0438
     16    H       28.7320    3.8650    3.1250 H       2  LIG2        0.0313
     17    H       27.6030    4.9940    3.7330 H       2  LIG2        0.0313
     18    H       29.1610    4.7050    5.5250 H       2  LIG2        0.0313
     19    H       27.7350    3.8690    6.0430 H       2  LIG2        0.0313
     20    H       26.2910    1.2590    2.2850 H       2  LIG2        0.0352
     21    H       27.4900    2.2920    1.6060 H       2  LIG2        0.0352
     22    H       30.1400   -0.4540    4.1480 H       2  LIG2        0.0313
     23    H       29.1710   -1.7040    4.8550 H       2  LIG2        0.0313
     24    H       28.8880   -0.4800    6.8840 H       2  LIG2        0.0310
     25    H       30.4660    0.0770    6.4220 H       2  LIG2        0.0310
     26    H       29.2140    1.3220    2.9500 H       2  LIG2        0.0575
     27    H       27.8490    1.5730    6.5280 H       2  LIG2        0.0572
     28    H       30.7250    2.8930    3.8540 H       2  LIG2        0.0274
     29    H       31.2910    1.6680    4.9780 H       2  LIG2        0.0274
     30    H       31.3880    3.3630    5.4220 H       2  LIG2        0.0274
     31    H       26.6160   -1.7090    3.9830 H       2  LIG2        0.0274
     32    H       25.8500   -0.1280    3.9320 H       2  LIG2        0.0274
     33    H       26.5840   -0.6870    5.4250 H       2  LIG2        0.0274
     34    H       24.3610    5.0140    4.4690 H       2  LIG2        0.0274
     35    H       25.9510    5.0400    5.1910 H       2  LIG2        0.0274
     36    H       24.7270    3.9760    5.8500 H       2  LIG2        0.0274
     37    H       23.3920    3.0170    3.5410 H       2  LIG2        0.0274
     38    H       24.1110    1.6530    4.3870 H       2  LIG2        0.0274
     39    H       24.3670    1.8840    2.6560 H       2  LIG2        0.0274
@<TRIPOS>BOND
     1    21     4    1
     2    20     4    1
     3     4    10    1
     4     4     2    1
     5    39    15    1
     6    26    10    1
     7    10     8    2
     8    16     1    1
     9     2     1    1
    10     2     9    2
    11    37    15    1
    12    15     9    1
    13    15    38    1
    14    17     1    1
    15    28    12    1
    16     1     3    1
    17    32    13    1
    18     8    13    1
    19     8     6    1
    20     9    14    1
    21    31    13    1
    22    22     6    1
    23    13    33    1
    24    34    14    1
    25     6    23    1
    26     6     7    1
    27    12    29    1
    28    12    30    1
    29    12     5    1
    30    14    35    1
    31    14    36    1
    32     3    18    1
    33     3     5    1
    34     3    19    1
    35     5    11    2
    36     7    11    1
    37     7    25    1
    38     7    24    1
    39    11    27    1
@<TRIPOS>MOLECULE
5281519_run_12.pdb
 39 39 0 0 0
SMALL
GASTEIGER

@<TRIPOS>ATOM
      1    C       27.7750    1.1620    3.0580 C.3     2  LIG2       -0.0275
      2    C       28.6030    2.2660    3.7500 C.2     2  LIG2       -0.0668
      3    C       26.5480    0.5950    3.8370 C.3     2  LIG2       -0.0283
      4    C       28.3920    3.6820    3.1710 C.3     2  LIG2       -0.0130
      5    C       25.3490    1.5340    3.9020 C.2     2  LIG2       -0.0762
      6    C       24.8140    4.7650    4.3750 C.3     2  LIG2       -0.0286
      7    C       24.2210    3.5140    5.0920 C.3     2  LIG2       -0.0308
      8    C       26.3430    4.7560    4.3060 C.2     2  LIG2       -0.0759
      9    C       29.4640    1.9910    4.7730 C.2     2  LIG2       -0.0762
     10    C       26.9530    4.1510    3.2620 C.2     2  LIG2       -0.0810
     11    C       25.1210    2.2830    5.0040 C.2     2  LIG2       -0.0847
     12    C       24.5390    1.6430    2.6160 C.3     2  LIG2       -0.0438
     13    C       27.0490    5.2330    5.5680 C.3     2  LIG2       -0.0438
     14    C       29.6760    0.5950    5.3560 C.3     2  LIG2       -0.0438
     15    C       30.3520    3.0230    5.4640 C.3     2  LIG2       -0.0438
     16    H       27.4680    1.5050    2.0700 H       2  LIG2        0.0313
     17    H       28.4510    0.3360    2.8360 H       2  LIG2        0.0313
     18    H       26.2190   -0.3360    3.3740 H       2  LIG2        0.0313
     19    H       26.8490    0.3200    4.8480 H       2  LIG2        0.0313
     20    H       29.0100    4.4330    3.6530 H       2  LIG2        0.0352
     21    H       28.7070    3.6930    2.1270 H       2  LIG2        0.0352
     22    H       24.4260    4.7880    3.3560 H       2  LIG2        0.0313
     23    H       24.4590    5.6890    4.8350 H       2  LIG2        0.0313
     24    H       24.0920    3.7330    6.1530 H       2  LIG2        0.0310
     25    H       23.2220    3.2880    4.7190 H       2  LIG2        0.0310
     26    H       26.3380    3.8100    2.4420 H       2  LIG2        0.0575
     27    H       25.7740    2.1500    5.8550 H       2  LIG2        0.0572
     28    H       25.1820    1.8670    1.7640 H       2  LIG2        0.0274
     29    H       23.7760    2.4190    2.6620 H       2  LIG2        0.0274
     30    H       24.0310    0.6990    2.4190 H       2  LIG2        0.0274
     31    H       26.9530    6.3150    5.6590 H       2  LIG2        0.0274
     32    H       28.1100    4.9950    5.5780 H       2  LIG2        0.0274
     33    H       26.6040    4.7730    6.4510 H       2  LIG2        0.0274
     34    H       30.7220    0.3020    5.2640 H       2  LIG2        0.0274
     35    H       29.0900   -0.1870    4.8790 H       2  LIG2        0.0274
     36    H       29.4130    0.5920    6.4130 H       2  LIG2        0.0274
     37    H       31.3130    2.5850    5.7390 H       2  LIG2        0.0274
     38    H       29.8740    3.3670    6.3810 H       2  LIG2        0.0274
     39    H       30.5880    3.8930    4.8550 H       2  LIG2        0.0274
@<TRIPOS>BOND
     1    28    12    1
     2    16     1    1
     3    21     4    1
     4    30    12    1
     5    26    10    1
     6    12    29    1
     7    12     5    1
     8    17     1    1
     9     1     2    1
    10     1     3    1
    11     4    10    1
    12     4    20    1
    13     4     2    1
    14    10     8    2
    15    22     6    1
    16    18     3    1
    17     2     9    2
    18     3     5    1
    19     3    19    1
    20     5    11    2
    21     8     6    1
    22     8    13    1
    23     6    23    1
    24     6     7    1
    25    25     7    1
    26     9    14    1
    27     9    15    1
    28    39    15    1
    29    35    14    1
    30    11     7    1
    31    11    27    1
    32     7    24    1
    33    34    14    1
    34    14    36    1
    35    15    37    1
    36    15    38    1
    37    13    32    1
    38    13    31    1
    39    13    33    1
@<TRIPOS>MOLECULE
5281519_run_8.pdb
 39 39 0 0 0
SMALL
GASTEIGER

@<TRIPOS>ATOM
      1    C       26.0250    2.2030    4.2460 C.3     2  LIG2       -0.0275
      2    C       27.0320    3.2890    4.6840 C.2     2  LIG2       -0.0668
      3    C       26.4270    1.3030    3.0370 C.3     2  LIG2       -0.0283
      4    C       27.7860    2.9720    5.9930 C.3     2  LIG2       -0.0130
      5    C       27.5010    0.2660    3.3470 C.2     2  LIG2       -0.0762
      6    C       30.3320    0.1330    5.0540 C.3     2  LIG2       -0.0286
      7    C       30.0110   -0.2400    3.5740 C.3     2  LIG2       -0.0308
      8    C       29.8520    1.5330    5.4440 C.2     2  LIG2       -0.0759
      9    C       27.2090    4.4400    3.9720 C.2     2  LIG2       -0.0762
     10    C       28.5950    1.6920    5.9160 C.2     2  LIG2       -0.0810
     11    C       28.7910    0.4920    3.0170 C.2     2  LIG2       -0.0847
     12    C       27.0250   -0.9420    4.1460 C.3     2  LIG2       -0.0438
     13    C       30.7750    2.6710    5.0310 C.3     2  LIG2       -0.0438
     14    C       26.4710    4.7610    2.6730 C.3     2  LIG2       -0.0438
     15    C       28.1440    5.5770    4.3750 C.3     2  LIG2       -0.0438
     16    H       25.7630    1.5840    5.1050 H       2  LIG2        0.0313
     17    H       25.0870    2.7030    4.0040 H       2  LIG2        0.0313
     18    H       25.5480    0.7730    2.6670 H       2  LIG2        0.0313
     19    H       26.7550    1.9270    2.2050 H       2  LIG2        0.0313
     20    H       28.4610    3.7660    6.2950 H       2  LIG2        0.0352
     21    H       27.0680    2.8930    6.8100 H       2  LIG2        0.0352
     22    H       29.8370   -0.5910    5.7020 H       2  LIG2        0.0313
     23    H       31.3970    0.0230    5.2660 H       2  LIG2        0.0313
     24    H       30.8560    0.0320    2.9410 H       2  LIG2        0.0310
     25    H       29.8970   -1.3180    3.4600 H       2  LIG2        0.0310
     26    H       28.0160    0.8050    6.1280 H       2  LIG2        0.0575
     27    H       29.0280    1.3970    2.4750 H       2  LIG2        0.0572
     28    H       26.4900   -0.6330    5.0450 H       2  LIG2        0.0274
     29    H       27.8430   -1.5890    4.4600 H       2  LIG2        0.0274
     30    H       26.3490   -1.5440    3.5380 H       2  LIG2        0.0274
     31    H       31.6590    2.6800    5.6680 H       2  LIG2        0.0274
     32    H       30.3060    3.6490    5.1060 H       2  LIG2        0.0274
     33    H       31.0990    2.5440    3.9970 H       2  LIG2        0.0274
     34    H       25.9020    5.6840    2.7800 H       2  LIG2        0.0274
     35    H       25.7670    3.9960    2.3540 H       2  LIG2        0.0274
     36    H       27.1880    4.8930    1.8630 H       2  LIG2        0.0274
     37    H       27.7160    6.5440    4.1060 H       2  LIG2        0.0274
     38    H       29.0920    5.4800    3.8480 H       2  LIG2        0.0274
     39    H       28.3500    5.6330    5.4420 H       2  LIG2        0.0274
@<TRIPOS>BOND
     1    36    14    1
     2    19     3    1
     3    35    14    1
     4    27    11    1
     5    18     3    1
     6    14    34    1
     7    14     9    1
     8    24     7    1
     9    11     5    2
    10    11     7    1
    11     3     5    1
    12     3     1    1
    13     5    12    1
    14    25     7    1
    15    30    12    1
    16     7     6    1
    17    38    15    1
    18     9    15    1
    19     9     2    2
    20    33    13    1
    21    17     1    1
    22    37    15    1
    23    12    29    1
    24    12    28    1
    25     1     2    1
    26     1    16    1
    27    15    39    1
    28     2     4    1
    29    13    32    1
    30    13     8    1
    31    13    31    1
    32     6    23    1
    33     6     8    1
    34     6    22    1
    35     8    10    2
    36    10     4    1
    37    10    26    1
    38     4    20    1
    39     4    21    1
@<TRIPOS>MOLECULE
5281519_run_20.pdb
 39 39 0 0 0
SMALL
GASTEIGER

@<TRIPOS>ATOM
      1    C       27.9530    3.5270    4.8030 C.3     2  LIG2       -0.0275
      2    C       26.6270    2.7620    4.6040 C.2     2  LIG2       -0.0668
      3    C       28.2970    4.6410    3.7660 C.3     2  LIG2       -0.0283
      4    C       25.5110    3.1430    5.6030 C.3     2  LIG2       -0.0130
      5    C       27.4720    5.9150    3.9060 C.2     2  LIG2       -0.0762
      6    C       24.3170    6.7170    4.4980 C.3     2  LIG2       -0.0286
      7    C       25.2830    7.1410    3.3490 C.3     2  LIG2       -0.0308
      8    C       24.2500    5.2020    4.7050 C.2     2  LIG2       -0.0759
      9    C       26.4780    1.8120    3.6360 C.2     2  LIG2       -0.0762
     10    C       25.1350    4.6100    5.5380 C.2     2  LIG2       -0.0810
     11    C       26.4080    6.1370    3.1040 C.2     2  LIG2       -0.0847
     12    C       27.8630    6.8160    5.0720 C.3     2  LIG2       -0.0438
     13    C       23.3250    4.4610    3.7500 C.3     2  LIG2       -0.0438
     14    C       27.5730    1.4310    2.6400 C.3     2  LIG2       -0.0438
     15    C       25.2160    0.9800    3.4190 C.3     2  LIG2       -0.0438
     16    H       27.9900    3.9310    5.8150 H       2  LIG2        0.0313
     17    H       28.7590    2.7940    4.7980 H       2  LIG2        0.0313
     18    H       29.3490    4.9120    3.8560 H       2  LIG2        0.0313
     19    H       28.1890    4.2480    2.7540 H       2  LIG2        0.0313
     20    H       24.6030    2.5670    5.4620 H       2  LIG2        0.0352
     21    H       25.8390    2.9010    6.6140 H       2  LIG2        0.0352
     22    H       24.6700    7.1730    5.4240 H       2  LIG2        0.0313
     23    H       23.3170    7.1250    4.3430 H       2  LIG2        0.0313
     24    H       24.7220    7.2180    2.4160 H       2  LIG2        0.0310
     25    H       25.6870    8.1380    3.5280 H       2  LIG2        0.0310
     26    H       25.7750    5.2440    6.1340 H       2  LIG2        0.0575
     27    H       26.1980    5.4200    2.3240 H       2  LIG2        0.0572
     28    H       27.9030    6.2560    6.0060 H       2  LIG2        0.0274
     29    H       27.1710    7.6440    5.2170 H       2  LIG2        0.0274
     30    H       28.8490    7.2460    4.8910 H       2  LIG2        0.0274
     31    H       22.2860    4.6510    4.0190 H       2  LIG2        0.0274
     32    H       23.4750    3.3840    3.7620 H       2  LIG2        0.0274
     33    H       23.4820    4.8000    2.7260 H       2  LIG2        0.0274
     34    H       27.8110    0.3710    2.7280 H       2  LIG2        0.0274
     35    H       28.5070    1.9730    2.7690 H       2  LIG2        0.0274
     36    H       27.2300    1.6220    1.6230 H       2  LIG2        0.0274
     37    H       25.4700   -0.0340    3.1050 H       2  LIG2        0.0274
     38    H       24.6110    1.4250    2.6300 H       2  LIG2        0.0274
     39    H       24.5940    0.8680    4.3040 H       2  LIG2        0.0274
@<TRIPOS>BOND
     1    36    14    1
     2    27    11    1
     3    24     7    1
     4    38    15    1
     5    14    34    1
     6    14    35    1
     7    14     9    1
     8    33    13    1
     9    19     3    1
    10    11     7    1
    11    11     5    2
    12    37    15    1
    13     7    25    1
    14     7     6    1
    15    15     9    1
    16    15    39    1
    17     9     2    2
    18    13    32    1
    19    13    31    1
    20    13     8    1
    21     3    18    1
    22     3     5    1
    23     3     1    1
    24     5    12    1
    25    23     6    1
    26     6     8    1
    27     6    22    1
    28     2     1    1
    29     2     4    1
    30     8    10    2
    31    17     1    1
    32     1    16    1
    33    30    12    1
    34    12    29    1
    35    12    28    1
    36    20     4    1
    37    10     4    1
    38    10    26    1
    39     4    21    1
@<TRIPOS>MOLECULE
5281519_run_1.pdb
 39 39 0 0 0
SMALL
GASTEIGER

@<TRIPOS>ATOM
      1    C       28.5110    4.4540    3.7450 C.3     2  LIG2       -0.0275
      2    C       26.9680    4.4730    3.7060 C.2     2  LIG2       -0.0668
      3    C       29.1870    3.6050    4.8640 C.3     2  LIG2       -0.0283
      4    C       26.3460    3.6410    2.5630 C.3     2  LIG2       -0.0130
      5    C       29.1170    2.0980    4.6480 C.2     2  LIG2       -0.0762
      6    C       26.8800   -0.1070    3.6060 C.3     2  LIG2       -0.0286
      7    C       27.7400   -0.0570    4.9060 C.3     2  LIG2       -0.0308
      8    C       26.1200    1.1930    3.3330 C.2     2  LIG2       -0.0759
      9    C       26.2300    5.1900    4.6020 C.2     2  LIG2       -0.0762
     10    C       26.7230    2.1740    2.6250 C.2     2  LIG2       -0.0810
     11    C       28.1850    1.3550    5.2830 C.2     2  LIG2       -0.0847
     12    C       30.0700    1.5480    3.5920 C.3     2  LIG2       -0.0438
     13    C       24.8170    1.3530    4.1040 C.3     2  LIG2       -0.0438
     14    C       26.8350    6.0120    5.7400 C.3     2  LIG2       -0.0438
     15    C       24.7070    5.2970    4.5890 C.3     2  LIG2       -0.0438
     16    H       28.8950    4.1620    2.7670 H       2  LIG2        0.0313
     17    H       28.8490    5.4860    3.8460 H       2  LIG2        0.0313
     18    H       30.2390    3.8810    4.9490 H       2  LIG2        0.0313
     19    H       28.7490    3.8530    5.8310 H       2  LIG2        0.0313
     20    H       25.2630    3.6990    2.5380 H       2  LIG2        0.0352
     21    H       26.6670    4.0530    1.6050 H       2  LIG2        0.0352
     22    H       27.5470   -0.2960    2.7640 H       2  LIG2        0.0313
     23    H       26.1930   -0.9540    3.6200 H       2  LIG2        0.0313
     24    H       27.1510   -0.4350    5.7430 H       2  LIG2        0.0310
     25    H       28.5990   -0.7250    4.8300 H       2  LIG2        0.0310
     26    H       27.6730    1.9550    2.1600 H       2  LIG2        0.0575
     27    H       27.5360    1.8470    5.9930 H       2  LIG2        0.0572
     28    H       29.9770    2.0960    2.6550 H       2  LIG2        0.0274
     29    H       29.8970    0.4960    3.3740 H       2  LIG2        0.0274
     30    H       31.0990    1.6430    3.9400 H       2  LIG2        0.0274
     31    H       24.0560    0.6940    3.6850 H       2  LIG2        0.0274
     32    H       24.4260    2.3670    4.0740 H       2  LIG2        0.0274
     33    H       24.9590    1.0900    5.1530 H       2  LIG2        0.0274
     34    H       26.5400    7.0570    5.6490 H       2  LIG2        0.0274
     35    H       27.9220    5.9960    5.7790 H       2  LIG2        0.0274
     36    H       26.4760    5.6370    6.6980 H       2  LIG2        0.0274
     37    H       24.3860    6.2930    4.8990 H       2  LIG2        0.0274
     38    H       24.2810    4.5820    5.2920 H       2  LIG2        0.0274
     39    H       24.2540    5.1300    3.6140 H       2  LIG2        0.0274
@<TRIPOS>BOND
     1    21     4    1
     2    26    10    1
     3    20     4    1
     4     4    10    1
     5     4     2    1
     6    10     8    2
     7    28    12    1
     8    22     6    1
     9    16     1    1
    10     8     6    1
    11     8    13    1
    12    29    12    1
    13    12    30    1
    14    12     5    1
    15     6    23    1
    16     6     7    1
    17    39    15    1
    18    31    13    1
    19     2     1    1
    20     2     9    2
    21     1    17    1
    22     1     3    1
    23    32    13    1
    24    13    33    1
    25    15     9    1
    26    15    37    1
    27    15    38    1
    28     9    14    1
    29     5     3    1
    30     5    11    2
    31    25     7    1
    32     3    18    1
    33     3    19    1
    34     7    11    1
    35     7    24    1
    36    11    27    1
    37    34    14    1
    38    14    35    1
    39    14    36    1
@<TRIPOS>MOLECULE
5281519_run_13.pdb
 39 39 0 0 0
SMALL
GASTEIGER

@<TRIPOS>ATOM
      1    C       25.7690    1.1120    3.2440 C.3     2  LIG2       -0.0275
      2    C       27.2870    0.9030    3.4350 C.2     2  LIG2       -0.0668
      3    C       24.9760    1.7210    4.4410 C.3     2  LIG2       -0.0283
      4    C       28.1730    1.9150    2.6760 C.3     2  LIG2       -0.0130
      5    C       25.2120    3.2100    4.6660 C.2     2  LIG2       -0.0762
      6    C       27.7780    5.2980    4.6300 C.3     2  LIG2       -0.0286
      7    C       26.6960    5.0250    5.7200 C.3     2  LIG2       -0.0308
      8    C       28.4630    4.0270    4.1230 C.2     2  LIG2       -0.0759
      9    C       27.7870   -0.1130    4.1970 C.2     2  LIG2       -0.0762
     10    C       27.9160    3.3510    3.0870 C.2     2  LIG2       -0.0810
     11    C       26.0730    3.6340    5.6170 C.2     2  LIG2       -0.0847
     12    C       24.5150    4.1350    3.6750 C.3     2  LIG2       -0.0438
     13    C       29.5860    3.5030    5.0070 C.3     2  LIG2       -0.0438
     14    C       26.9200   -1.1160    4.9560 C.3     2  LIG2       -0.0438
     15    C       29.2730   -0.4100    4.3840 C.3     2  LIG2       -0.0438
     16    H       25.5950    1.6970    2.3400 H       2  LIG2        0.0313
     17    H       25.3330    0.1430    3.0020 H       2  LIG2        0.0313
     18    H       23.9070    1.5720    4.2860 H       2  LIG2        0.0313
     19    H       25.2100    1.1750    5.3550 H       2  LIG2        0.0313
     20    H       29.2340    1.7250    2.8010 H       2  LIG2        0.0352
     21    H       27.9970    1.8120    1.6050 H       2  LIG2        0.0352
     22    H       27.2920    5.7850    3.7840 H       2  LIG2        0.0313
     23    H       28.5200    6.0160    4.9830 H       2  LIG2        0.0313
     24    H       27.1540    5.0920    6.7080 H       2  LIG2        0.0310
     25    H       25.9250    5.7950    5.7040 H       2  LIG2        0.0310
     26    H       27.0880    3.8060    2.5640 H       2  LIG2        0.0575
     27    H       26.5390    2.8930    6.2510 H       2  LIG2        0.0572
     28    H       24.7300    3.8430    2.6460 H       2  LIG2        0.0274
     29    H       24.8130    5.1760    3.7870 H       2  LIG2        0.0274
     30    H       23.4360    4.0880    3.8230 H       2  LIG2        0.0274
     31    H       30.4640    4.1430    4.9080 H       2  LIG2        0.0274
     32    H       29.8890    2.4900    4.7550 H       2  LIG2        0.0274
     33    H       29.2800    3.5000    6.0530 H       2  LIG2        0.0274
     34    H       27.1370   -2.1310    4.6230 H       2  LIG2        0.0274
     35    H       25.8490   -0.9700    4.8330 H       2  LIG2        0.0274
     36    H       27.1300   -1.0540    6.0230 H       2  LIG2        0.0274
     37    H       29.4480   -1.4860    4.4490 H       2  LIG2        0.0274
     38    H       29.6250    0.0350    5.3140 H       2  LIG2        0.0274
     39    H       29.9080   -0.0570    3.5750 H       2  LIG2        0.0274
@<TRIPOS>BOND
     1    21     4    1
     2    16     1    1
     3    26    10    1
     4    28    12    1
     5     4    20    1
     6     4    10    1
     7     4     2    1
     8    17     1    1
     9    10     8    2
    10     1     2    1
    11     1     3    1
    12     2     9    2
    13    39    15    1
    14    12    29    1
    15    12    30    1
    16    12     5    1
    17    22     6    1
    18     8     6    1
    19     8    13    1
    20     9    15    1
    21     9    14    1
    22    18     3    1
    23    15    37    1
    24    15    38    1
    25     3     5    1
    26     3    19    1
    27    34    14    1
    28     6    23    1
    29     6     7    1
    30     5    11    2
    31    32    13    1
    32    35    14    1
    33    31    13    1
    34    14    36    1
    35    13    33    1
    36    11     7    1
    37    11    27    1
    38    25     7    1
    39     7    24    1
@<TRIPOS>MOLECULE
5281519_run_7.pdb
 39 39 0 0 0
SMALL
GASTEIGER

@<TRIPOS>ATOM
      1    C       24.3960    2.4950    4.9910 C.3     2  LIG2       -0.0275
      2    C       25.0060    3.9010    5.1820 C.2     2  LIG2       -0.0668
      3    C       24.6910    1.7660    3.6440 C.3     2  LIG2       -0.0283
      4    C       26.2050    3.9510    6.1550 C.3     2  LIG2       -0.0130
      5    C       26.1120    1.2310    3.5100 C.2     2  LIG2       -0.0762
      6    C       29.1750    2.2600    4.2210 C.3     2  LIG2       -0.0286
      7    C       28.5560    1.7300    2.8910 C.3     2  LIG2       -0.0308
      8    C       28.3600    3.3860    4.8620 C.2     2  LIG2       -0.0759
      9    C       24.5000    5.0000    4.5530 C.2     2  LIG2       -0.0762
     10    C       27.3610    3.0740    5.7170 C.2     2  LIG2       -0.0810
     11    C       27.0420    1.9180    2.8120 C.2     2  LIG2       -0.0847
     12    C       26.4090   -0.0320    4.3110 C.3     2  LIG2       -0.0438
     13    C       28.6040    4.7710    4.2790 C.3     2  LIG2       -0.0438
     14    C       23.3190    4.9610    3.5850 C.3     2  LIG2       -0.0438
     15    C       25.0190    6.4250    4.7390 C.3     2  LIG2       -0.0438
     16    H       24.6770    1.8600    5.8320 H       2  LIG2        0.0313
     17    H       23.3160    2.5890    5.1010 H       2  LIG2        0.0313
     18    H       24.0050    0.9260    3.5250 H       2  LIG2        0.0313
     19    H       24.4740    2.4320    2.8090 H       2  LIG2        0.0313
     20    H       26.5920    4.9540    6.2970 H       2  LIG2        0.0352
     21    H       25.8740    3.6390    7.1470 H       2  LIG2        0.0352
     22    H       29.2250    1.4300    4.9280 H       2  LIG2        0.0313
     23    H       30.2100    2.5730    4.0780 H       2  LIG2        0.0313
     24    H       28.9850    2.2770    2.0510 H       2  LIG2        0.0310
     25    H       28.8240    0.6860    2.7260 H       2  LIG2        0.0310
     26    H       27.2580    2.0430    6.0240 H       2  LIG2        0.0575
     27    H       26.7350    2.8200    2.3030 H       2  LIG2        0.0572
     28    H       26.1190    0.0870    5.3550 H       2  LIG2        0.0274
     29    H       27.4620   -0.3050    4.2940 H       2  LIG2        0.0274
     30    H       25.8490   -0.8710    3.8970 H       2  LIG2        0.0274
     31    H       29.5760    5.1440    4.6050 H       2  LIG2        0.0274
     32    H       27.8550    5.4990    4.5820 H       2  LIG2        0.0274
     33    H       28.5990    4.7340    3.1900 H       2  LIG2        0.0274
     34    H       22.5140    5.6010    3.9450 H       2  LIG2        0.0274
     35    H       22.8890    3.9720    3.4390 H       2  LIG2        0.0274
     36    H       23.6310    5.3210    2.6060 H       2  LIG2        0.0274
     37    H       24.1980    7.1430    4.7020 H       2  LIG2        0.0274
     38    H       25.7090    6.6740    3.9340 H       2  LIG2        0.0274
     39    H       25.5220    6.6000    5.6870 H       2  LIG2        0.0274
@<TRIPOS>BOND
     1    24     7    1
     2    27    11    1
     3    36    14    1
     4    25     7    1
     5    19     3    1
     6    11     7    1
     7    11     5    2
     8     7     6    1
     9    33    13    1
    10    35    14    1
    11     5     3    1
    12     5    12    1
    13    18     3    1
    14    14    34    1
    15    14     9    1
    16     3     1    1
    17    30    12    1
    18    38    15    1
    19    23     6    1
    20     6     8    1
    21     6    22    1
    22    13    32    1
    23    13    31    1
    24    13     8    1
    25    29    12    1
    26    12    28    1
    27     9    15    1
    28     9     2    2
    29    37    15    1
    30    15    39    1
    31     8    10    2
    32     1    17    1
    33     1     2    1
    34     1    16    1
    35     2     4    1
    36    10    26    1
    37    10     4    1
    38     4    20    1
    39     4    21    1
@<TRIPOS>MOLECULE
5281519_run_10.pdb
 39 39 0 0 0
SMALL
GASTEIGER

@<TRIPOS>ATOM
      1    C       29.6160   -0.3790    4.8300 C.3     2  LIG2       -0.0275
      2    C       30.2960    1.0060    4.7680 C.2     2  LIG2       -0.0668
      3    C       28.2460   -0.4700    5.5700 C.3     2  LIG2       -0.0283
      4    C       30.2300    1.6900    3.3850 C.3     2  LIG2       -0.0130
      5    C       27.0730    0.1360    4.8080 C.2     2  LIG2       -0.0762
      6    C       26.4950    2.8300    2.9760 C.3     2  LIG2       -0.0286
      7    C       25.7480    2.2590    4.2200 C.3     2  LIG2       -0.0308
      8    C       28.0040    2.9710    3.1870 C.2     2  LIG2       -0.0759
      9    C       30.9190    1.5550    5.8510 C.2     2  LIG2       -0.0762
     10    C       28.8110    1.9230    2.9070 C.2     2  LIG2       -0.0810
     11    C       26.6290    1.3780    5.1030 C.2     2  LIG2       -0.0847
     12    C       26.5520   -0.7000    3.6450 C.3     2  LIG2       -0.0438
     13    C       28.4360    4.2250    3.9350 C.3     2  LIG2       -0.0438
     14    C       30.9860    0.8890    7.2240 C.3     2  LIG2       -0.0438
     15    C       31.6570    2.8920    5.8450 C.3     2  LIG2       -0.0438
     16    H       29.5280   -0.7850    3.8220 H       2  LIG2        0.0313
     17    H       30.3120   -1.0650    5.3140 H       2  LIG2        0.0313
     18    H       28.0080   -1.5140    5.7730 H       2  LIG2        0.0313
     19    H       28.3240    0.0010    6.5500 H       2  LIG2        0.0313
     20    H       30.7440    2.6450    3.3610 H       2  LIG2        0.0352
     21    H       30.7570    1.0730    2.6560 H       2  LIG2        0.0352
     22    H       26.3290    2.1510    2.1380 H       2  LIG2        0.0313
     23    H       26.0640    3.7810    2.6590 H       2  LIG2        0.0313
     24    H       25.4020    3.0840    4.8440 H       2  LIG2        0.0310
     25    H       24.8460    1.7240    3.9200 H       2  LIG2        0.0310
     26    H       28.3770    1.0650    2.4150 H       2  LIG2        0.0575
     27    H       27.0870    1.9010    5.9310 H       2  LIG2        0.0572
     28    H       27.3620   -0.9900    2.9750 H       2  LIG2        0.0274
     29    H       25.8070   -0.1760    3.0480 H       2  LIG2        0.0274
     30    H       26.0840   -1.6090    4.0250 H       2  LIG2        0.0274
     31    H       28.3380    5.0960    3.2850 H       2  LIG2        0.0274
     32    H       29.4680    4.1840    4.2750 H       2  LIG2        0.0274
     33    H       27.8100    4.3810    4.8140 H       2  LIG2        0.0274
     34    H       32.0240    0.7380    7.5220 H       2  LIG2        0.0274
     35    H       30.5020   -0.0830    7.2780 H       2  LIG2        0.0274
     36    H       30.5070    1.5260    7.9670 H       2  LIG2        0.0274
     37    H       32.5330    2.8540    6.4950 H       2  LIG2        0.0274
     38    H       31.0020    3.6760    6.2230 H       2  LIG2        0.0274
     39    H       32.0270    3.1970    4.8690 H       2  LIG2        0.0274
@<TRIPOS>BOND
     1    22     6    1
     2    26    10    1
     3    21     4    1
     4    23     6    1
     5    10     8    2
     6    10     4    1
     7    28    12    1
     8     6     8    1
     9     6     7    1
    10    29    12    1
    11     8    13    1
    12    31    13    1
    13    20     4    1
    14     4     2    1
    15    12    30    1
    16    12     5    1
    17    16     1    1
    18    25     7    1
    19    13    32    1
    20    13    33    1
    21     7    24    1
    22     7    11    1
    23     2     1    1
    24     2     9    2
    25     5    11    2
    26     5     3    1
    27     1    17    1
    28     1     3    1
    29    39    15    1
    30    11    27    1
    31     3    18    1
    32     3    19    1
    33    15     9    1
    34    15    38    1
    35    15    37    1
    36     9    14    1
    37    14    35    1
    38    14    34    1
    39    14    36    1
@<TRIPOS>MOLECULE
5281519_run_6.pdb
 39 39 0 0 0
SMALL
GASTEIGER

@<TRIPOS>ATOM
      1    C       28.7400    1.9120    5.5540 C.3     2  LIG2       -0.0275
      2    C       28.2080    0.8930    4.5210 C.2     2  LIG2       -0.0668
      3    C       28.9650    3.3740    5.0620 C.3     2  LIG2       -0.0283
      4    C       26.7240    0.5060    4.7110 C.3     2  LIG2       -0.0130
      5    C       27.6860    4.1750    4.8460 C.2     2  LIG2       -0.0762
      6    C       24.6810    3.6560    3.5620 C.3     2  LIG2       -0.0286
      7    C       25.7460    4.7550    3.2630 C.3     2  LIG2       -0.0308
      8    C       25.2440    2.2350    3.5030 C.2     2  LIG2       -0.0759
      9    C       29.0030    0.3720    3.5430 C.2     2  LIG2       -0.0762
     10    C       25.7860    1.6920    4.6170 C.2     2  LIG2       -0.0810
     11    C       27.1710    4.3260    3.6060 C.2     2  LIG2       -0.0847
     12    C       27.0000    4.6590    6.1180 C.3     2  LIG2       -0.0438
     13    C       25.3590    1.6430    2.1050 C.3     2  LIG2       -0.0438
     14    C       30.4700    0.7520    3.3440 C.3     2  LIG2       -0.0438
     15    C       28.5590   -0.6770    2.5270 C.3     2  LIG2       -0.0438
     16    H       28.0970    1.9050    6.4340 H       2  LIG2        0.0313
     17    H       29.6870    1.5280    5.9340 H       2  LIG2        0.0313
     18    H       29.5780    3.9140    5.7860 H       2  LIG2        0.0313
     19    H       29.5500    3.3690    4.1420 H       2  LIG2        0.0313
     20    H       26.3860   -0.2350    3.9940 H       2  LIG2        0.0352
     21    H       26.6010    0.0270    5.6830 H       2  LIG2        0.0352
     22    H       24.2890    3.8270    4.5660 H       2  LIG2        0.0313
     23    H       23.8180    3.7520    2.9010 H       2  LIG2        0.0313
     24    H       25.7360    4.9870    2.1970 H       2  LIG2        0.0310
     25    H       25.4930    5.6890    3.7660 H       2  LIG2        0.0310
     26    H       25.6810    2.2310    5.5480 H       2  LIG2        0.0575
     27    H       27.7230    3.9180    2.7710 H       2  LIG2        0.0572
     28    H       26.8490    3.8390    6.8200 H       2  LIG2        0.0274
     29    H       26.0270    5.1090    5.9280 H       2  LIG2        0.0274
     30    H       27.6170    5.4150    6.6050 H       2  LIG2        0.0274
     31    H       24.3680    1.3810    1.7320 H       2  LIG2        0.0274
     32    H       25.9710    0.7450    2.0710 H       2  LIG2        0.0274
     33    H       25.8020    2.3660    1.4200 H       2  LIG2        0.0274
     34    H       31.1040   -0.1310    3.4250 H       2  LIG2        0.0274
     35    H       30.8490    1.4760    4.0620 H       2  LIG2        0.0274
     36    H       30.6090    1.1830    2.3530 H       2  LIG2        0.0274
     37    H       29.3730   -1.3670    2.3010 H       2  LIG2        0.0274
     38    H       28.2740   -0.1900    1.5940 H       2  LIG2        0.0274
     39    H       27.7280   -1.2980    2.8560 H       2  LIG2        0.0274
@<TRIPOS>BOND
     1    33    13    1
     2    38    15    1
     3    31    13    1
     4    32    13    1
     5    13     8    1
     6    24     7    1
     7    37    15    1
     8    36    14    1
     9    15    39    1
    10    15     9    1
    11    27    11    1
    12    23     6    1
    13     7     6    1
    14     7    11    1
    15     7    25    1
    16    14    34    1
    17    14     9    1
    18    14    35    1
    19     8     6    1
    20     8    10    2
    21     9     2    2
    22     6    22    1
    23    11     5    2
    24    20     4    1
    25    19     3    1
    26     2     4    1
    27     2     1    1
    28    10     4    1
    29    10    26    1
    30     4    21    1
    31     5     3    1
    32     5    12    1
    33     3     1    1
    34     3    18    1
    35     1    17    1
    36     1    16    1
    37    29    12    1
    38    12    30    1
    39    12    28    1
@<TRIPOS>MOLECULE
5281519_run_16.pdb
 39 39 0 0 0
SMALL
GASTEIGER

@<TRIPOS>ATOM
      1    C       28.4420    2.5080    5.7870 C.3     2  LIG2       -0.0275
      2    C       29.5910    1.5460    6.1580 C.2     2  LIG2       -0.0668
      3    C       28.3940    3.0300    4.3190 C.3     2  LIG2       -0.0283
      4    C       29.1630    0.0710    6.3240 C.3     2  LIG2       -0.0130
      5    C       27.9390    1.9990    3.2920 C.2     2  LIG2       -0.0762
      6    C       28.4530   -1.2120    2.6820 C.3     2  LIG2       -0.0286
      7    C       28.5990    0.0400    1.7640 C.3     2  LIG2       -0.0308
      8    C       29.1880   -1.0750    4.0170 C.2     2  LIG2       -0.0759
      9    C       30.8700    1.9840    6.3430 C.2     2  LIG2       -0.0762
     10    C       28.5490   -0.5130    5.0670 C.2     2  LIG2       -0.0810
     11    C       28.8430    1.3330    2.5400 C.2     2  LIG2       -0.0847
     12    C       26.4440    1.7060    3.2850 C.3     2  LIG2       -0.0438
     13    C       30.6790   -1.3750    3.9660 C.3     2  LIG2       -0.0438
     14    C       31.3050    3.4390    6.1760 C.3     2  LIG2       -0.0438
     15    C       32.0420    1.0990    6.7630 C.3     2  LIG2       -0.0438
     16    H       27.4880    2.0530    6.0560 H       2  LIG2        0.0313
     17    H       28.5050    3.3670    6.4550 H       2  LIG2        0.0313
     18    H       27.7180    3.8840    4.2550 H       2  LIG2        0.0313
     19    H       29.3720    3.4190    4.0330 H       2  LIG2        0.0313
     20    H       29.9830   -0.5770    6.6170 H       2  LIG2        0.0352
     21    H       28.4450   -0.0040    7.1420 H       2  LIG2        0.0352
     22    H       27.3920   -1.3590    2.8890 H       2  LIG2        0.0313
     23    H       28.7680   -2.1200    2.1640 H       2  LIG2        0.0313
     24    H       29.4560   -0.0960    1.1020 H       2  LIG2        0.0310
     25    H       27.7360    0.1430    1.1050 H       2  LIG2        0.0310
     26    H       27.4940   -0.3010    4.9670 H       2  LIG2        0.0575
     27    H       29.8860    1.5960    2.6430 H       2  LIG2        0.0572
     28    H       26.0850    1.4650    4.2860 H       2  LIG2        0.0274
     29    H       26.1800    0.8730    2.6350 H       2  LIG2        0.0274
     30    H       25.8980    2.5810    2.9300 H       2  LIG2        0.0274
     31    H       30.8380   -2.4490    3.8670 H       2  LIG2        0.0274
     32    H       31.2110   -1.0450    4.8550 H       2  LIG2        0.0274
     33    H       31.1400   -0.8800    3.1100 H       2  LIG2        0.0274
     34    H       31.7350    3.8140    7.1050 H       2  LIG2        0.0274
     35    H       30.5020    4.1210    5.9070 H       2  LIG2        0.0274
     36    H       32.0610    3.5120    5.3960 H       2  LIG2        0.0274
     37    H       32.7210    1.6430    7.4220 H       2  LIG2        0.0274
     38    H       32.6100    0.7970    5.8840 H       2  LIG2        0.0274
     39    H       31.7550    0.2030    7.3090 H       2  LIG2        0.0274
@<TRIPOS>BOND
     1    24     7    1
     2    25     7    1
     3     7    11    1
     4     7     6    1
     5    23     6    1
     6    11    27    1
     7    11     5    2
     8    29    12    1
     9     6    22    1
    10     6     8    1
    11    30    12    1
    12    33    13    1
    13    12     5    1
    14    12    28    1
    15     5     3    1
    16    31    13    1
    17    13     8    1
    18    13    32    1
    19     8    10    2
    20    19     3    1
    21    18     3    1
    22     3     1    1
    23    26    10    1
    24    10     4    1
    25    36    14    1
    26     1    16    1
    27     1     2    1
    28     1    17    1
    29    38    15    1
    30    35    14    1
    31     2     4    1
    32     2     9    2
    33    14     9    1
    34    14    34    1
    35     4    20    1
    36     4    21    1
    37     9    15    1
    38    15    39    1
    39    15    37    1
