@<TRIPOS>MOLECULE
11996452_run_23.pdb
 42 44 0 0 0
SMALL
GASTEIGER

@<TRIPOS>ATOM
      1    O       31.1550    0.0780    5.3190 O.3     2  LIG2       -0.3886
      2    C       27.3030    2.2620    4.8390 C.3     2  LIG2       -0.0289
      3    C       26.9280    3.7250    4.6330 C.3     2  LIG2       -0.0284
      4    C       28.1960    3.3900    5.3810 C.3     2  LIG2       -0.0319
      5    C       27.8660    1.3570    3.7050 C.3     2  LIG2       -0.0294
      6    C       29.1080    0.4890    4.1010 C.3     2  LIG2       -0.0090
      7    C       29.6170    3.5000    4.7960 C.3     2  LIG2       -0.0468
      8    C       26.8370    0.3440    3.1460 C.3     2  LIG2       -0.0404
      9    C       30.0070    0.9130    5.3210 C.3     2  LIG2        0.0664
     10    C       28.6160   -0.9810    4.0970 C.3     2  LIG2       -0.0471
     11    C       30.5730    2.3700    5.2390 C.3     2  LIG2       -0.0237
     12    C       26.9780    4.3970    3.2410 C.3     2  LIG2       -0.0593
     13    C       25.7440    4.2460    5.4690 C.3     2  LIG2       -0.0593
     14    C       27.0970   -0.9380    3.9390 C.3     2  LIG2       -0.0498
     15    C       25.3620    0.7970    3.1400 C.3     2  LIG2       -0.0621
     16    C       29.3860    0.6430    6.7210 C.3     2  LIG2       -0.0358
     17    H       26.7360    1.6910    5.5750 H       2  LIG2        0.0312
     18    H       28.1900    3.6000    6.4520 H       2  LIG2        0.0309
     19    H       28.1630    1.9880    2.8700 H       2  LIG2        0.0310
     20    H       29.7730    0.5630    3.2360 H       2  LIG2        0.0331
     21    H       29.5990    3.5210    3.7090 H       2  LIG2        0.0269
     22    H       30.0440    4.4610    5.0870 H       2  LIG2        0.0269
     23    H       27.0990    0.1430    2.1050 H       2  LIG2        0.0301
     24    H       29.0560   -1.5150    3.2530 H       2  LIG2        0.0269
     25    H       28.9000   -1.5440    4.9850 H       2  LIG2        0.0269
     26    H       31.4110    2.3980    4.5390 H       2  LIG2        0.0293
     27    H       31.0000    2.6460    6.2050 H       2  LIG2        0.0293
     28    H       27.0540    5.4810    3.3430 H       2  LIG2        0.0235
     29    H       26.0700    4.1840    2.6790 H       2  LIG2        0.0235
     30    H       27.8140    4.0890    2.6190 H       2  LIG2        0.0235
     31    H       25.8120    5.3240    5.6170 H       2  LIG2        0.0235
     32    H       25.7030    3.7850    6.4570 H       2  LIG2        0.0235
     33    H       24.7950    4.0350    4.9750 H       2  LIG2        0.0235
     34    H       26.6120   -0.8920    4.9160 H       2  LIG2        0.0268
     35    H       26.7210   -1.8230    3.4240 H       2  LIG2        0.0268
     36    H       24.9720    0.9470    4.1470 H       2  LIG2        0.0233
     37    H       24.7310    0.0530    2.6540 H       2  LIG2        0.0233
     38    H       25.2430    1.7330    2.5930 H       2  LIG2        0.0233
     39    H       28.5010    1.2370    6.9270 H       2  LIG2        0.0257
     40    H       30.0930    0.8710    7.5210 H       2  LIG2        0.0257
     41    H       29.0990   -0.3990    6.8570 H       2  LIG2        0.0257
     42    H       31.7320    0.3580    4.6050 H       2  LIG2        0.2102
@<TRIPOS>BOND
     1    23     8    1
     2    38    15    1
     3    30    12    1
     4    37    15    1
     5    29    12    1
     6    19     5    1
     7    15     8    1
     8    15    36    1
     9     8     5    1
    10     8    14    1
    11    20     6    1
    12    12    28    1
    13    12     3    1
    14    24    10    1
    15    35    14    1
    16     5     6    1
    17     5     2    1
    18    21     7    1
    19    14    10    1
    20    14    34    1
    21    10     6    1
    22    10    25    1
    23     6     9    1
    24    26    11    1
    25    42     1    1
    26     3     2    1
    27     3     4    1
    28     3    13    1
    29     7    22    1
    30     7    11    1
    31     7     4    1
    32     2     4    1
    33     2    17    1
    34    33    13    1
    35    11     9    1
    36    11    27    1
    37     1     9    1
    38     9    16    1
    39     4    18    1
    40    13    31    1
    41    13    32    1
    42    16    41    1
    43    16    39    1
    44    16    40    1
@<TRIPOS>MOLECULE
11996452_run_9.pdb
 42 44 0 0 0
SMALL
GASTEIGER

@<TRIPOS>ATOM
      1    O       22.8330    3.6550    3.5280 O.3     2  LIG2       -0.3886
      2    C       27.0600    3.2230    4.8630 C.3     2  LIG2       -0.0289
      3    C       28.1520    2.1870    4.6220 C.3     2  LIG2       -0.0284
      4    C       26.7050    1.7530    4.5850 C.3     2  LIG2       -0.0319
      5    C       26.6500    4.2930    3.8090 C.3     2  LIG2       -0.0294
      6    C       25.1080    4.4690    3.6050 C.3     2  LIG2       -0.0090
      7    C       25.9100    1.4570    3.2990 C.3     2  LIG2       -0.0468
      8    C       27.1730    5.7150    4.1270 C.3     2  LIG2       -0.0404
      9    C       24.1240    3.3080    4.0080 C.3     2  LIG2        0.0664
     10    C       24.7650    5.8750    4.1610 C.3     2  LIG2       -0.0471
     11    C       24.4390    1.9260    3.3440 C.3     2  LIG2       -0.0237
     12    C       29.0160    2.1880    3.3390 C.3     2  LIG2       -0.0593
     13    C       28.9730    1.7660    5.8550 C.3     2  LIG2       -0.0593
     14    C       26.0180    6.3860    4.8710 C.3     2  LIG2       -0.0498
     15    C       28.5300    5.8000    4.8550 C.3     2  LIG2       -0.0621
     16    C       23.8920    3.1430    5.5360 C.3     2  LIG2       -0.0358
     17    H       26.9130    3.5770    5.8830 H       2  LIG2        0.0312
     18    H       26.3730    1.1240    5.4120 H       2  LIG2        0.0309
     19    H       27.0760    4.0150    2.8460 H       2  LIG2        0.0310
     20    H       24.9890    4.5610    2.5220 H       2  LIG2        0.0331
     21    H       26.3810    1.9040    2.4270 H       2  LIG2        0.0269
     22    H       25.9340    0.3830    3.1100 H       2  LIG2        0.0269
     23    H       27.3010    6.2420    3.1790 H       2  LIG2        0.0301
     24    H       24.5120    6.5450    3.3370 H       2  LIG2        0.0269
     25    H       23.9050    5.8880    4.8300 H       2  LIG2        0.0269
     26    H       24.0970    1.9320    2.3060 H       2  LIG2        0.0293
     27    H       23.8490    1.1480    3.8330 H       2  LIG2        0.0293
     28    H       29.4480    1.2000    3.1690 H       2  LIG2        0.0235
     29    H       29.8400    2.8940    3.4320 H       2  LIG2        0.0235
     30    H       28.4790    2.4480    2.4310 H       2  LIG2        0.0235
     31    H       29.3890    0.7670    5.7280 H       2  LIG2        0.0235
     32    H       28.3710    1.7540    6.7650 H       2  LIG2        0.0235
     33    H       29.8010    2.4550    6.0250 H       2  LIG2        0.0235
     34    H       26.0100    6.0880    5.9210 H       2  LIG2        0.0268
     35    H       26.0840    7.4740    4.8370 H       2  LIG2        0.0268
     36    H       28.4880    5.3710    5.8570 H       2  LIG2        0.0233
     37    H       28.8490    6.8370    4.9580 H       2  LIG2        0.0233
     38    H       29.3070    5.2740    4.2980 H       2  LIG2        0.0233
     39    H       24.7780    2.8320    6.0810 H       2  LIG2        0.0257
     40    H       23.1310    2.3870    5.7440 H       2  LIG2        0.0257
     41    H       23.5440    4.0610    6.0080 H       2  LIG2        0.0257
     42    H       22.2530    2.9000    3.6490 H       2  LIG2        0.2102
@<TRIPOS>BOND
     1    26    11    1
     2    21     7    1
     3    30    12    1
     4    20     6    1
     5    19     5    1
     6    22     7    1
     7    28    12    1
     8    23     8    1
     9     7    11    1
    10     7     4    1
    11    24    10    1
    12    12    29    1
    13    12     3    1
    14    11    27    1
    15    11     9    1
    16     1    42    1
    17     1     9    1
    18     6     5    1
    19     6     9    1
    20     6    10    1
    21     5     8    1
    22     5     2    1
    23     9    16    1
    24     8    15    1
    25     8    14    1
    26    10    25    1
    27    10    14    1
    28    38    15    1
    29     4     3    1
    30     4     2    1
    31     4    18    1
    32     3     2    1
    33     3    13    1
    34    35    14    1
    35    15    37    1
    36    15    36    1
    37     2    17    1
    38    14    34    1
    39    16    40    1
    40    16    41    1
    41    16    39    1
    42    31    13    1
    43    13    33    1
    44    13    32    1
@<TRIPOS>MOLECULE
11996452_run_6.pdb
 42 44 0 0 0
SMALL
GASTEIGER

@<TRIPOS>ATOM
      1    O       26.6300    4.8100    3.6940 O.3     2  LIG2       -0.3886
      2    C       27.9680    0.6530    4.5660 C.3     2  LIG2       -0.0289
      3    C       27.7640   -0.6950    3.8860 C.3     2  LIG2       -0.0284
      4    C       26.7040    0.3700    3.7390 C.3     2  LIG2       -0.0319
      5    C       28.9630    1.7310    4.0470 C.3     2  LIG2       -0.0294
      6    C       28.3980    3.1900    3.9950 C.3     2  LIG2       -0.0090
      7    C       26.4870    1.2260    2.4760 C.3     2  LIG2       -0.0468
      8    C       30.2610    1.8380    4.8850 C.3     2  LIG2       -0.0404
      9    C       26.8430    3.4290    3.9400 C.3     2  LIG2        0.0664
     10    C       29.1700    3.9820    5.0800 C.3     2  LIG2       -0.0471
     11    C       26.1110    2.6960    2.7670 C.3     2  LIG2       -0.0237
     12    C       28.6180   -1.1420    2.6760 C.3     2  LIG2       -0.0593
     13    C       27.4360   -1.8810    4.8120 C.3     2  LIG2       -0.0593
     14    C       29.9760    2.9610    5.8830 C.3     2  LIG2       -0.0498
     15    C       30.7710    0.5330    5.5290 C.3     2  LIG2       -0.0621
     16    C       26.0940    3.1980    5.2840 C.3     2  LIG2       -0.0358
     17    H       27.8430    0.6990    5.6490 H       2  LIG2        0.0312
     18    H       25.7620    0.1830    4.2580 H       2  LIG2        0.0309
     19    H       29.2700    1.4640    3.0370 H       2  LIG2        0.0310
     20    H       28.7660    3.5870    3.0450 H       2  LIG2        0.0331
     21    H       27.3670    1.2220    1.8370 H       2  LIG2        0.0269
     22    H       25.7010    0.7710    1.8720 H       2  LIG2        0.0269
     23    H       31.0570    2.1840    4.2230 H       2  LIG2        0.0301
     24    H       29.8490    4.6920    4.6050 H       2  LIG2        0.0269
     25    H       28.5300    4.5750    5.7340 H       2  LIG2        0.0269
     26    H       26.2840    3.2370    1.8330 H       2  LIG2        0.0293
     27    H       25.0320    2.7440    2.9280 H       2  LIG2        0.0293
     28    H       28.0990   -1.9150    2.1070 H       2  LIG2        0.0235
     29    H       29.5670   -1.5610    3.0090 H       2  LIG2        0.0235
     30    H       28.8540   -0.3490    1.9710 H       2  LIG2        0.0235
     31    H       26.8860   -2.6560    4.2790 H       2  LIG2        0.0235
     32    H       26.8260   -1.5800    5.6660 H       2  LIG2        0.0235
     33    H       28.3470   -2.3300    5.2100 H       2  LIG2        0.0235
     34    H       29.3900    2.5890    6.7250 H       2  LIG2        0.0268
     35    H       30.8920    3.3970    6.2840 H       2  LIG2        0.0268
     36    H       30.0790    0.1430    6.2760 H       2  LIG2        0.0233
     37    H       31.7290    0.6950    6.0250 H       2  LIG2        0.0233
     38    H       30.9210   -0.2430    4.7760 H       2  LIG2        0.0233
     39    H       26.1110    2.1660    5.6200 H       2  LIG2        0.0257
     40    H       25.0400    3.4690    5.2040 H       2  LIG2        0.0257
     41    H       26.5010    3.7970    6.0970 H       2  LIG2        0.0257
     42    H       27.1070    5.0530    2.8980 H       2  LIG2        0.2102
@<TRIPOS>BOND
     1    26    11    1
     2    21     7    1
     3    22     7    1
     4    30    12    1
     5    28    12    1
     6     7    11    1
     7     7     4    1
     8    12    29    1
     9    12     3    1
    10    11    27    1
    11    11     9    1
    12    42     1    1
    13    19     5    1
    14    20     6    1
    15     1     9    1
    16     4     3    1
    17     4    18    1
    18     4     2    1
    19     3     2    1
    20     3    13    1
    21     9     6    1
    22     9    16    1
    23     6     5    1
    24     6    10    1
    25     5     2    1
    26     5     8    1
    27    23     8    1
    28    31    13    1
    29     2    17    1
    30    24    10    1
    31    38    15    1
    32    13    33    1
    33    13    32    1
    34     8    15    1
    35     8    14    1
    36    10    25    1
    37    10    14    1
    38    40    16    1
    39    16    39    1
    40    16    41    1
    41    15    37    1
    42    15    36    1
    43    14    35    1
    44    14    34    1
@<TRIPOS>MOLECULE
11996452_run_23.pdb
 42 44 0 0 0
SMALL
GASTEIGER

@<TRIPOS>ATOM
      1    O       31.2240   -0.8570    4.5670 O.3     2  LIG2       -0.3886
      2    C       27.6440    1.5870    3.5460 C.3     2  LIG2       -0.0289
      3    C       26.1970    1.2610    3.1970 C.3     2  LIG2       -0.0284
      4    C       27.2770    0.2590    2.8650 C.3     2  LIG2       -0.0319
      5    C       28.2050    1.5410    4.9970 C.3     2  LIG2       -0.0294
      6    C       29.5850    0.8190    5.1550 C.3     2  LIG2       -0.0090
      7    C       27.5520   -1.0330    3.6570 C.3     2  LIG2       -0.0468
      8    C       28.4130    2.9380    5.6310 C.3     2  LIG2       -0.0404
      9    C       30.0580   -0.2180    4.0700 C.3     2  LIG2        0.0664
     10    C       30.6030    1.9270    5.5270 C.3     2  LIG2       -0.0471
     11    C       29.0500   -1.3830    3.7970 C.3     2  LIG2       -0.0237
     12    C       25.1380    0.9590    4.2840 C.3     2  LIG2       -0.0593
     13    C       25.5880    2.0450    2.0200 C.3     2  LIG2       -0.0593
     14    C       29.8820    3.2640    5.3550 C.3     2  LIG2       -0.0498
     15    C       27.4270    4.0420    5.1970 C.3     2  LIG2       -0.0621
     16    C       30.5500    0.4070    2.7340 C.3     2  LIG2       -0.0358
     17    H       28.1600    2.3260    2.9320 H       2  LIG2        0.0312
     18    H       27.5000    0.1300    1.8040 H       2  LIG2        0.0309
     19    H       27.4900    1.0190    5.6310 H       2  LIG2        0.0310
     20    H       29.4740    0.2250    6.0670 H       2  LIG2        0.0331
     21    H       27.1210   -0.9880    4.6550 H       2  LIG2        0.0269
     22    H       27.0370   -1.8620    3.1680 H       2  LIG2        0.0269
     23    H       28.2990    2.8340    6.7120 H       2  LIG2        0.0301
     24    H       30.9120    1.8100    6.5670 H       2  LIG2        0.0269
     25    H       31.5200    1.9000    4.9390 H       2  LIG2        0.0269
     26    H       29.1100   -2.1160    4.6050 H       2  LIG2        0.0293
     27    H       29.3570   -1.9230    2.8990 H       2  LIG2        0.0293
     28    H       24.3070    0.3930    3.8610 H       2  LIG2        0.0235
     29    H       24.7310    1.8840    4.6920 H       2  LIG2        0.0235
     30    H       25.5060    0.3790    5.1270 H       2  LIG2        0.0235
     31    H       24.7760    1.4870    1.5550 H       2  LIG2        0.0235
     32    H       26.3240    2.2560    1.2430 H       2  LIG2        0.0235
     33    H       25.1890    3.0030    2.3550 H       2  LIG2        0.0235
     34    H       30.0100    3.6390    4.3380 H       2  LIG2        0.0268
     35    H       30.2710    4.0210    6.0380 H       2  LIG2        0.0268
     36    H       27.5190    4.2850    4.1380 H       2  LIG2        0.0233
     37    H       27.6050    4.9610    5.7580 H       2  LIG2        0.0233
     38    H       26.3960    3.7410    5.3830 H       2  LIG2        0.0233
     39    H       29.7690    0.9150    2.1760 H       2  LIG2        0.0257
     40    H       30.9510   -0.3540    2.0610 H       2  LIG2        0.0257
     41    H       31.3490    1.1330    2.8810 H       2  LIG2        0.0257
     42    H       31.9560   -0.2390    4.5100 H       2  LIG2        0.2102
@<TRIPOS>BOND
     1    32    13    1
     2    31    13    1
     3    18     4    1
     4    13    33    1
     5    13     3    1
     6    40    16    1
     7    39    16    1
     8    16    41    1
     9    16     9    1
    10     4     3    1
    11     4     2    1
    12     4     7    1
    13    27    11    1
    14    17     2    1
    15    22     7    1
    16     3     2    1
    17     3    12    1
    18     2     5    1
    19     7    11    1
    20     7    21    1
    21    11     9    1
    22    11    26    1
    23    28    12    1
    24     9     1    1
    25     9     6    1
    26    36    15    1
    27    12    29    1
    28    12    30    1
    29    34    14    1
    30    42     1    1
    31    25    10    1
    32     5     6    1
    33     5     8    1
    34     5    19    1
    35     6    10    1
    36     6    20    1
    37    15    38    1
    38    15     8    1
    39    15    37    1
    40    14    10    1
    41    14     8    1
    42    14    35    1
    43    10    24    1
    44     8    23    1
@<TRIPOS>MOLECULE
11996452_run_24.pdb
 42 44 0 0 0
SMALL
GASTEIGER

@<TRIPOS>ATOM
      1    O       27.0270   -1.2080    3.6050 O.3     2  LIG2       -0.3886
      2    C       28.2640    3.0470    4.0470 C.3     2  LIG2       -0.0289
      3    C       27.5110    4.3650    4.1860 C.3     2  LIG2       -0.0284
      4    C       26.8670    3.2270    3.4320 C.3     2  LIG2       -0.0319
      5    C       28.4300    2.0310    5.2140 C.3     2  LIG2       -0.0294
      6    C       28.1570    0.5360    4.8400 C.3     2  LIG2       -0.0090
      7    C       25.7390    2.3340    3.9840 C.3     2  LIG2       -0.0468
      8    C       29.8450    2.0290    5.8440 C.3     2  LIG2       -0.0404
      9    C       27.2750    0.1890    3.5830 C.3     2  LIG2        0.0664
     10    C       29.5280   -0.1810    4.9270 C.3     2  LIG2       -0.0471
     11    C       25.8550    0.8470    3.5800 C.3     2  LIG2       -0.0237
     12    C       26.9410    4.8460    5.5410 C.3     2  LIG2       -0.0593
     13    C       28.0440    5.5430    3.3480 C.3     2  LIG2       -0.0593
     14    C       30.5840    0.9080    5.1120 C.3     2  LIG2       -0.0498
     15    C       30.5920    3.3790    5.8550 C.3     2  LIG2       -0.0621
     16    C       27.9770    0.3930    2.2100 C.3     2  LIG2       -0.0358
     17    H       29.1030    3.0130    3.3520 H       2  LIG2        0.0312
     18    H       26.7770    3.3580    2.3520 H       2  LIG2        0.0309
     19    H       27.7390    2.2990    6.0110 H       2  LIG2        0.0310
     20    H       27.5840    0.1470    5.6870 H       2  LIG2        0.0331
     21    H       25.6840    2.3860    5.0680 H       2  LIG2        0.0269
     22    H       24.7800    2.7220    3.6360 H       2  LIG2        0.0269
     23    H       29.7450    1.7270    6.8880 H       2  LIG2        0.0301
     24    H       29.5390   -0.8510    5.7880 H       2  LIG2        0.0269
     25    H       29.7570   -0.8040    4.0630 H       2  LIG2        0.0269
     26    H       25.1970    0.3020    4.2620 H       2  LIG2        0.0293
     27    H       25.4030    0.7280    2.5930 H       2  LIG2        0.0293
     28    H       26.1420    5.5710    5.3830 H       2  LIG2        0.0235
     29    H       27.7160    5.3360    6.1310 H       2  LIG2        0.0235
     30    H       26.5230    4.0590    6.1620 H       2  LIG2        0.0235
     31    H       27.2560    6.2670    3.1440 H       2  LIG2        0.0235
     32    H       28.4400    5.2160    2.3860 H       2  LIG2        0.0235
     33    H       28.8490    6.0600    3.8700 H       2  LIG2        0.0235
     34    H       30.9490    1.2550    4.1430 H       2  LIG2        0.0268
     35    H       31.4430    0.5440    5.6770 H       2  LIG2        0.0268
     36    H       30.8190    3.7330    4.8490 H       2  LIG2        0.0233
     37    H       31.5380    3.2920    6.3900 H       2  LIG2        0.0233
     38    H       30.0030    4.1480    6.3560 H       2  LIG2        0.0233
     39    H       28.2130    1.4300    1.9910 H       2  LIG2        0.0257
     40    H       27.3490    0.0480    1.3860 H       2  LIG2        0.0257
     41    H       28.9120   -0.1610    2.1320 H       2  LIG2        0.0257
     42    H       26.5190   -1.4380    2.8240 H       2  LIG2        0.2102
@<TRIPOS>BOND
     1    40    16    1
     2    39    16    1
     3    41    16    1
     4    16     9    1
     5    18     4    1
     6    32    13    1
     7    27    11    1
     8    42     1    1
     9    31    13    1
    10    13    33    1
    11    13     3    1
    12    17     2    1
    13     4     7    1
    14     4     2    1
    15     4     3    1
    16    11     9    1
    17    11     7    1
    18    11    26    1
    19     9     1    1
    20     9     6    1
    21    22     7    1
    22     7    21    1
    23     2     3    1
    24     2     5    1
    25    25    10    1
    26    34    14    1
    27     3    12    1
    28     6    10    1
    29     6     5    1
    30     6    20    1
    31    36    15    1
    32    10    14    1
    33    10    24    1
    34    14    35    1
    35    14     8    1
    36     5     8    1
    37     5    19    1
    38    28    12    1
    39    12    29    1
    40    12    30    1
    41     8    15    1
    42     8    23    1
    43    15    38    1
    44    15    37    1
@<TRIPOS>MOLECULE
11996452_run_7.pdb
 42 44 0 0 0
SMALL
GASTEIGER

@<TRIPOS>ATOM
      1    O       27.4440    6.1130    4.8670 O.3     2  LIG2       -0.3886
      2    C       27.5440    1.8770    3.4960 C.3     2  LIG2       -0.0289
      3    C       28.4800    0.7010    3.7430 C.3     2  LIG2       -0.0284
      4    C       29.0330    2.1050    3.8020 C.3     2  LIG2       -0.0319
      5    C       26.4940    2.3660    4.5360 C.3     2  LIG2       -0.0294
      6    C       26.4440    3.9160    4.7530 C.3     2  LIG2       -0.0090
      7    C       29.3730    2.8610    5.1010 C.3     2  LIG2       -0.0468
      8    C       25.0390    1.9670    4.1890 C.3     2  LIG2       -0.0404
      9    C       27.6890    4.8020    4.3800 C.3     2  LIG2        0.0664
     10    C       25.0820    4.3800    4.1780 C.3     2  LIG2       -0.0471
     11    C       29.0290    4.3670    5.0640 C.3     2  LIG2       -0.0237
     12    C       28.3850   -0.1720    5.0160 C.3     2  LIG2       -0.0593
     13    C       28.8520   -0.1420    2.5080 C.3     2  LIG2       -0.0593
     14    C       24.4790    3.1810    3.4460 C.3     2  LIG2       -0.0498
     15    C       24.8530    0.6290    3.4460 C.3     2  LIG2       -0.0621
     16    C       27.9000    5.0340    2.8570 C.3     2  LIG2       -0.0358
     17    H       27.2210    2.0630    2.4720 H       2  LIG2        0.0312
     18    H       29.7020    2.3910    2.9890 H       2  LIG2        0.0309
     19    H       26.7180    1.9090    5.4990 H       2  LIG2        0.0310
     20    H       26.3440    4.0320    5.8360 H       2  LIG2        0.0331
     21    H       28.8720    2.4210    5.9610 H       2  LIG2        0.0269
     22    H       30.4370    2.7450    5.3080 H       2  LIG2        0.0269
     23    H       24.4860    1.8750    5.1270 H       2  LIG2        0.0301
     24    H       24.4210    4.6810    4.9930 H       2  LIG2        0.0269
     25    H       25.1520    5.2440    3.5180 H       2  LIG2        0.0269
     26    H       29.0330    4.6980    6.1050 H       2  LIG2        0.0293
     27    H       29.8620    4.8930    4.5940 H       2  LIG2        0.0293
     28    H       29.3300   -0.6870    5.1980 H       2  LIG2        0.0235
     29    H       27.6140   -0.9330    4.9030 H       2  LIG2        0.0235
     30    H       28.1550    0.3760    5.9260 H       2  LIG2        0.0235
     31    H       29.8110   -0.6410    2.6480 H       2  LIG2        0.0235
     32    H       28.9310    0.4650    1.6050 H       2  LIG2        0.0235
     33    H       28.0990   -0.9080    2.3180 H       2  LIG2        0.0235
     34    H       24.7950    3.1730    2.4020 H       2  LIG2        0.0268
     35    H       23.3890    3.2070    3.4620 H       2  LIG2        0.0268
     36    H       25.3010    0.6430    2.4520 H       2  LIG2        0.0233
     37    H       23.7940    0.3990    3.3220 H       2  LIG2        0.0233
     38    H       25.3030   -0.1940    4.0030 H       2  LIG2        0.0233
     39    H       28.1460    4.1290    2.3090 H       2  LIG2        0.0257
     40    H       28.7200    5.7300    2.6700 H       2  LIG2        0.0257
     41    H       27.0230    5.4610    2.3740 H       2  LIG2        0.0257
     42    H       28.2160    6.6540    4.6850 H       2  LIG2        0.2102
@<TRIPOS>BOND
     1    32    13    1
     2    39    16    1
     3    33    13    1
     4    41    16    1
     5    34    14    1
     6    36    15    1
     7    17     2    1
     8    13    31    1
     9    13     3    1
    10    40    16    1
    11    16     9    1
    12    18     4    1
    13    37    15    1
    14    14    35    1
    15    14    10    1
    16    14     8    1
    17    15    38    1
    18    15     8    1
    19     2     3    1
    20     2     4    1
    21     2     5    1
    22    25    10    1
    23     3     4    1
    24     3    12    1
    25     4     7    1
    26    10     6    1
    27    10    24    1
    28     8     5    1
    29     8    23    1
    30     9     6    1
    31     9     1    1
    32     9    11    1
    33     5     6    1
    34     5    19    1
    35    27    11    1
    36    42     1    1
    37     6    20    1
    38    29    12    1
    39    12    28    1
    40    12    30    1
    41    11     7    1
    42    11    26    1
    43     7    22    1
    44     7    21    1
@<TRIPOS>MOLECULE
11996452_run_4.pdb
 42 44 0 0 0
SMALL
GASTEIGER

@<TRIPOS>ATOM
      1    O       27.3490   -1.7950    3.1050 O.3     2  LIG2       -0.3886
      2    C       29.1530    1.4020    5.6280 C.3     2  LIG2       -0.0289
      3    C       30.5810    1.7920    5.9910 C.3     2  LIG2       -0.0284
      4    C       30.2710    0.3480    5.6730 C.3     2  LIG2       -0.0319
      5    C       28.5020    1.7280    4.2520 C.3     2  LIG2       -0.0294
      6    C       27.7220    0.5440    3.5870 C.3     2  LIG2       -0.0090
      7    C       30.6250   -0.3550    4.3480 C.3     2  LIG2       -0.0468
      8    C       27.4850    2.8940    4.3030 C.3     2  LIG2       -0.0404
      9    C       28.0450   -0.9400    4.0000 C.3     2  LIG2        0.0664
     10    C       26.2270    0.9500    3.6200 C.3     2  LIG2       -0.0471
     11    C       29.5490   -1.3460    3.8520 C.3     2  LIG2       -0.0237
     12    C       31.4650    2.6430    5.0500 C.3     2  LIG2       -0.0593
     13    C       30.8340    2.1400    7.4700 C.3     2  LIG2       -0.0593
     14    C       26.1300    2.2070    4.4840 C.3     2  LIG2       -0.0498
     15    C       27.7720    4.0100    5.3280 C.3     2  LIG2       -0.0621
     16    C       27.4930   -1.3710    5.3880 C.3     2  LIG2       -0.0358
     17    H       28.4160    1.3670    6.4300 H       2  LIG2        0.0312
     18    H       30.3100   -0.3460    6.5130 H       2  LIG2        0.0309
     19    H       29.2850    2.0320    3.5590 H       2  LIG2        0.0310
     20    H       28.0020    0.5980    2.5310 H       2  LIG2        0.0331
     21    H       30.8140    0.3640    3.5540 H       2  LIG2        0.0269
     22    H       31.5680   -0.8870    4.4730 H       2  LIG2        0.0269
     23    H       27.4790    3.3740    3.3220 H       2  LIG2        0.0301
     24    H       25.8830    1.1740    2.6090 H       2  LIG2        0.0269
     25    H       25.5650    0.1690    3.9940 H       2  LIG2        0.0269
     26    H       29.7770   -1.5300    2.7990 H       2  LIG2        0.0293
     27    H       29.7150   -2.3040    4.3500 H       2  LIG2        0.0293
     28    H       32.5200    2.4980    5.2820 H       2  LIG2        0.0235
     29    H       31.2450    3.7030    5.1720 H       2  LIG2        0.0235
     30    H       31.3490    2.4180    3.9930 H       2  LIG2        0.0235
     31    H       31.8760    1.9700    7.7400 H       2  LIG2        0.0235
     32    H       30.2220    1.5380    8.1440 H       2  LIG2        0.0235
     33    H       30.6010    3.1860    7.6700 H       2  LIG2        0.0235
     34    H       25.9700    1.9410    5.5300 H       2  LIG2        0.0268
     35    H       25.3020    2.8450    4.1740 H       2  LIG2        0.0268
     36    H       27.7190    3.6500    6.3550 H       2  LIG2        0.0233
     37    H       27.0490    4.8210    5.2290 H       2  LIG2        0.0233
     38    H       28.7640    4.4370    5.1740 H       2  LIG2        0.0233
     39    H       27.9490   -0.8440    6.2210 H       2  LIG2        0.0257
     40    H       27.6680   -2.4330    5.5740 H       2  LIG2        0.0257
     41    H       26.4180   -1.2200    5.4760 H       2  LIG2        0.0257
     42    H       27.5380   -1.5130    2.2080 H       2  LIG2        0.2102
@<TRIPOS>BOND
     1    42     1    1
     2    20     6    1
     3    24    10    1
     4    26    11    1
     5     1     9    1
     6    23     8    1
     7    21     7    1
     8    19     5    1
     9     6    10    1
    10     6     9    1
    11     6     5    1
    12    10    25    1
    13    10    14    1
    14    11     9    1
    15    11     7    1
    16    11    27    1
    17    30    12    1
    18     9    16    1
    19    35    14    1
    20     5     8    1
    21     5     2    1
    22     8    14    1
    23     8    15    1
    24     7    22    1
    25     7     4    1
    26    14    34    1
    27    12    29    1
    28    12    28    1
    29    12     3    1
    30    38    15    1
    31    37    15    1
    32    15    36    1
    33    16    41    1
    34    16    40    1
    35    16    39    1
    36     2     4    1
    37     2     3    1
    38     2    17    1
    39     4     3    1
    40     4    18    1
    41     3    13    1
    42    13    33    1
    43    13    31    1
    44    13    32    1
@<TRIPOS>MOLECULE
11996452_run_19.pdb
 42 44 0 0 0
SMALL
GASTEIGER

@<TRIPOS>ATOM
      1    O       30.4720    3.0460    4.3640 O.3     2  LIG2       -0.3886
      2    C       26.0400    2.8350    4.7470 C.3     2  LIG2       -0.0289
      3    C       24.9400    3.8680    4.9590 C.3     2  LIG2       -0.0284
      4    C       26.3220    4.1440    5.5020 C.3     2  LIG2       -0.0319
      5    C       26.7450    2.6060    3.3790 C.3     2  LIG2       -0.0294
      6    C       28.3050    2.4960    3.4440 C.3     2  LIG2       -0.0090
      7    C       27.3380    5.1130    4.8670 C.3     2  LIG2       -0.0468
      8    C       26.2870    1.3200    2.6470 C.3     2  LIG2       -0.0404
      9    C       29.0860    3.1070    4.6660 C.3     2  LIG2        0.0664
     10    C       28.6410    1.0250    3.0890 C.3     2  LIG2       -0.0471
     11    C       28.8020    4.6240    4.9290 C.3     2  LIG2       -0.0237
     12    C       24.3610    4.7030    3.7920 C.3     2  LIG2       -0.0593
     13    C       23.8500    3.5000    5.9840 C.3     2  LIG2       -0.0593
     14    C       27.3160    0.2650    3.0560 C.3     2  LIG2       -0.0498
     15    C       24.8210    0.8930    2.8650 C.3     2  LIG2       -0.0621
     16    C       28.9840    2.2920    5.9860 C.3     2  LIG2       -0.0358
     17    H       26.0030    1.9240    5.3450 H       2  LIG2        0.0312
     18    H       26.4240    4.1170    6.5880 H       2  LIG2        0.0309
     19    H       26.5050    3.4380    2.7190 H       2  LIG2        0.0310
     20    H       28.6520    3.0760    2.5840 H       2  LIG2        0.0331
     21    H       27.0950    5.3200    3.8270 H       2  LIG2        0.0269
     22    H       27.2640    6.0790    5.3690 H       2  LIG2        0.0269
     23    H       26.4000    1.4890    1.5750 H       2  LIG2        0.0301
     24    H       29.1130    0.9810    2.1060 H       2  LIG2        0.0269
     25    H       29.3430    0.5540    3.7770 H       2  LIG2        0.0269
     26    H       29.3490    5.2300    4.2040 H       2  LIG2        0.0293
     27    H       29.2120    4.9050    5.9020 H       2  LIG2        0.0293
     28    H       23.8930    5.6130    4.1700 H       2  LIG2        0.0235
     29    H       23.5970    4.1380    3.2590 H       2  LIG2        0.0235
     30    H       25.0930    5.0170    3.0530 H       2  LIG2        0.0235
     31    H       23.3890    4.3930    6.4040 H       2  LIG2        0.0235
     32    H       24.2490    2.9180    6.8160 H       2  LIG2        0.0235
     33    H       23.0650    2.9020    5.5200 H       2  LIG2        0.0235
     34    H       27.0820   -0.1400    4.0420 H       2  LIG2        0.0268
     35    H       27.3490   -0.5700    2.3550 H       2  LIG2        0.0268
     36    H       24.6200    0.6190    3.9010 H       2  LIG2        0.0233
     37    H       24.5740    0.0300    2.2460 H       2  LIG2        0.0233
     38    H       24.1350    1.6970    2.5920 H       2  LIG2        0.0233
     39    H       27.9820    2.2610    6.4030 H       2  LIG2        0.0257
     40    H       29.6200    2.7160    6.7660 H       2  LIG2        0.0257
     41    H       29.3020    1.2570    5.8640 H       2  LIG2        0.0257
     42    H       30.6500    3.6470    3.6370 H       2  LIG2        0.2102
@<TRIPOS>BOND
     1    23     8    1
     2    24    10    1
     3    37    15    1
     4    35    14    1
     5    20     6    1
     6    38    15    1
     7     8    15    1
     8     8    14    1
     9     8     5    1
    10    19     5    1
    11    15    36    1
    12    30    12    1
    13    14    10    1
    14    14    34    1
    15    10     6    1
    16    10    25    1
    17    29    12    1
    18     5     6    1
    19     5     2    1
    20     6     9    1
    21    42     1    1
    22    12    28    1
    23    12     3    1
    24    21     7    1
    25    26    11    1
    26     1     9    1
    27     9    11    1
    28     9    16    1
    29     2     3    1
    30     2    17    1
    31     2     4    1
    32     7    11    1
    33     7    22    1
    34     7     4    1
    35    11    27    1
    36     3     4    1
    37     3    13    1
    38     4    18    1
    39    33    13    1
    40    41    16    1
    41    13    31    1
    42    13    32    1
    43    16    39    1
    44    16    40    1
@<TRIPOS>MOLECULE
11996452_run_14.pdb
 42 44 0 0 0
SMALL
GASTEIGER

@<TRIPOS>ATOM
      1    O       24.7030    7.5850    4.7150 O.3     2  LIG2       -0.3886
      2    C       26.9040    3.7970    3.9180 C.3     2  LIG2       -0.0289
      3    C       28.2820    3.2670    4.2950 C.3     2  LIG2       -0.0284
      4    C       28.0810    4.7570    4.1540 C.3     2  LIG2       -0.0319
      5    C       25.7050    3.8420    4.9090 C.3     2  LIG2       -0.0294
      6    C       24.9000    5.1850    4.9190 C.3     2  LIG2       -0.0090
      7    C       27.9550    5.7420    5.3310 C.3     2  LIG2       -0.0468
      8    C       24.6420    2.7450    4.6550 C.3     2  LIG2       -0.0404
      9    C       25.5740    6.5090    4.4010 C.3     2  LIG2        0.0664
     10    C       23.5100    4.8500    4.3210 C.3     2  LIG2       -0.0471
     11    C       26.9260    6.8720    5.1030 C.3     2  LIG2       -0.0237
     12    C       28.5670    2.6290    5.6750 C.3     2  LIG2       -0.0593
     13    C       29.0690    2.5610    3.1750 C.3     2  LIG2       -0.0593
     14    C       23.5970    3.4270    3.7710 C.3     2  LIG2       -0.0498
     15    C       25.1620    1.4030    4.1000 C.3     2  LIG2       -0.0621
     16    C       25.7120    6.6160    2.8560 C.3     2  LIG2       -0.0358
     17    H       26.5770    3.6690    2.8860 H       2  LIG2        0.0312
     18    H       28.5620    5.2250    3.2940 H       2  LIG2        0.0309
     19    H       26.0800    3.6800    5.9180 H       2  LIG2        0.0310
     20    H       24.7090    5.3750    5.9790 H       2  LIG2        0.0331
     21    H       27.6940    5.2290    6.2540 H       2  LIG2        0.0269
     22    H       28.9320    6.1860    5.5250 H       2  LIG2        0.0269
     23    H       24.1640    2.5170    5.6090 H       2  LIG2        0.0301
     24    H       22.7520    4.8930    5.1050 H       2  LIG2        0.0269
     25    H       23.1810    5.5470    3.5510 H       2  LIG2        0.0269
     26    H       26.7240    7.2940    6.0910 H       2  LIG2        0.0293
     27    H       27.4180    7.6720    4.5470 H       2  LIG2        0.0293
     28    H       29.6340    2.6670    5.9000 H       2  LIG2        0.0235
     29    H       28.2670    1.5820    5.6840 H       2  LIG2        0.0235
     30    H       28.0610    3.1080    6.5090 H       2  LIG2        0.0235
     31    H       30.1420    2.6130    3.3560 H       2  LIG2        0.0235
     32    H       28.8820    3.0080    2.1970 H       2  LIG2        0.0235
     33    H       28.7910    1.5090    3.1070 H       2  LIG2        0.0235
     34    H       23.9220    3.4400    2.7290 H       2  LIG2        0.0268
     35    H       22.6320    2.9210    3.8100 H       2  LIG2        0.0268
     36    H       25.5890    1.5060    3.1030 H       2  LIG2        0.0233
     37    H       24.3540    0.6730    4.0350 H       2  LIG2        0.0233
     38    H       25.9290    0.9810    4.7510 H       2  LIG2        0.0233
     39    H       26.3890    5.8840    2.4270 H       2  LIG2        0.0257
     40    H       26.0990    7.5930    2.5570 H       2  LIG2        0.0257
     41    H       24.7590    6.4970    2.3420 H       2  LIG2        0.0257
     42    H       24.5610    7.5920    5.6640 H       2  LIG2        0.2102
@<TRIPOS>BOND
     1    32    13    1
     2    41    16    1
     3    39    16    1
     4    40    16    1
     5    34    14    1
     6    16     9    1
     7    17     2    1
     8    36    15    1
     9    33    13    1
    10    13    31    1
    11    13     3    1
    12    18     4    1
    13    25    10    1
    14    14    35    1
    15    14    10    1
    16    14     8    1
    17     2     4    1
    18     2     3    1
    19     2     5    1
    20    37    15    1
    21    15     8    1
    22    15    38    1
    23     4     3    1
    24     4     7    1
    25     3    12    1
    26    10     6    1
    27    10    24    1
    28     9     1    1
    29     9     6    1
    30     9    11    1
    31    27    11    1
    32     8     5    1
    33     8    23    1
    34     1    42    1
    35     5     6    1
    36     5    19    1
    37     6    20    1
    38    11     7    1
    39    11    26    1
    40     7    22    1
    41     7    21    1
    42    12    29    1
    43    12    28    1
    44    12    30    1
@<TRIPOS>MOLECULE
11996452_run_7.pdb
 42 44 0 0 0
SMALL
GASTEIGER

@<TRIPOS>ATOM
      1    O       24.7440    5.2870    3.9690 O.3     2  LIG2       -0.3886
      2    C       28.0560    2.3140    4.1390 C.3     2  LIG2       -0.0289
      3    C       29.3550    2.2120    4.9270 C.3     2  LIG2       -0.0284
      4    C       28.7930    3.5770    4.6100 C.3     2  LIG2       -0.0319
      5    C       26.6580    2.0040    4.7500 C.3     2  LIG2       -0.0294
      6    C       25.5410    3.0500    4.4230 C.3     2  LIG2       -0.0090
      7    C       28.0580    4.4820    5.6180 C.3     2  LIG2       -0.0468
      8    C       26.0690    0.6430    4.3050 C.3     2  LIG2       -0.0404
      9    C       25.9350    4.5150    4.0020 C.3     2  LIG2        0.0664
     10    C       24.5370    2.3220    3.4930 C.3     2  LIG2       -0.0471
     11    C       26.8650    5.2580    5.0180 C.3     2  LIG2       -0.0237
     12    C       29.3950    1.6860    6.3810 C.3     2  LIG2       -0.0593
     13    C       30.5990    1.7700    4.1340 C.3     2  LIG2       -0.0593
     14    C       25.1780    0.9880    3.1110 C.3     2  LIG2       -0.0498
     15    C       27.0830   -0.4870    4.0330 C.3     2  LIG2       -0.0621
     16    C       26.4790    4.6590    2.5520 C.3     2  LIG2       -0.0358
     17    H       28.0920    2.0960    3.0710 H       2  LIG2        0.0312
     18    H       29.3500    4.1670    3.8800 H       2  LIG2        0.0309
     19    H       26.7540    1.9580    5.8340 H       2  LIG2        0.0310
     20    H       25.0050    3.1760    5.3680 H       2  LIG2        0.0331
     21    H       27.6960    3.9140    6.4720 H       2  LIG2        0.0269
     22    H       28.7710    5.1930    6.0370 H       2  LIG2        0.0269
     23    H       25.4190    0.2840    5.1050 H       2  LIG2        0.0301
     24    H       23.6040    2.1400    4.0290 H       2  LIG2        0.0269
     25    H       24.2640    2.8920    2.6050 H       2  LIG2        0.0269
     26    H       26.2750    5.6020    5.8710 H       2  LIG2        0.0293
     27    H       27.2520    6.1680    4.5550 H       2  LIG2        0.0293
     28    H       30.2940    2.0360    6.8900 H       2  LIG2        0.0235
     29    H       29.4130    0.5970    6.3950 H       2  LIG2        0.0235
     30    H       28.5550    1.9940    6.9980 H       2  LIG2        0.0235
     31    H       31.5130    2.1360    4.6010 H       2  LIG2        0.0235
     32    H       30.5860    2.1430    3.1090 H       2  LIG2        0.0235
     33    H       30.6610    0.6820    4.0800 H       2  LIG2        0.0235
     34    H       25.7740    1.0960    2.2030 H       2  LIG2        0.0268
     35    H       24.4260    0.2200    2.9240 H       2  LIG2        0.0268
     36    H       27.7350   -0.2620    3.1880 H       2  LIG2        0.0233
     37    H       26.5690   -1.4220    3.8070 H       2  LIG2        0.0233
     38    H       27.7150   -0.6640    4.9040 H       2  LIG2        0.0233
     39    H       27.4290    4.1580    2.3920 H       2  LIG2        0.0257
     40    H       26.6450    5.7060    2.2910 H       2  LIG2        0.0257
     41    H       25.7910    4.2650    1.8060 H       2  LIG2        0.0257
     42    H       24.3070    5.2060    4.8200 H       2  LIG2        0.2102
@<TRIPOS>BOND
     1    41    16    1
     2    34    14    1
     3    40    16    1
     4    39    16    1
     5    16     9    1
     6    25    10    1
     7    35    14    1
     8    17     2    1
     9    32    13    1
    10    14    10    1
    11    14     8    1
    12    36    15    1
    13    10    24    1
    14    10     6    1
    15    37    15    1
    16    18     4    1
    17     1     9    1
    18     1    42    1
    19     9     6    1
    20     9    11    1
    21    15     8    1
    22    15    38    1
    23    33    13    1
    24    13    31    1
    25    13     3    1
    26     2     4    1
    27     2     5    1
    28     2     3    1
    29     8     5    1
    30     8    23    1
    31     6     5    1
    32     6    20    1
    33    27    11    1
    34     4     3    1
    35     4     7    1
    36     5    19    1
    37     3    12    1
    38    11     7    1
    39    11    26    1
    40     7    22    1
    41     7    21    1
    42    12    29    1
    43    12    28    1
    44    12    30    1
