@<TRIPOS>MOLECULE
11996452_9_run_4.pdb
 42 44 0 0 0
SMALL
GASTEIGER

@<TRIPOS>ATOM
      1    O       30.7870    1.2650    3.0900 O.3     2  LIG2       -0.3886
      2    C       28.3160    2.8950    3.5800 C.3     2  LIG2       -0.0289
      3    C       28.0130    4.0270    4.5720 C.3     2  LIG2       -0.0284
      4    C       29.2310    3.1510    4.7800 C.3     2  LIG2       -0.0319
      5    C       27.6410    1.4900    3.4140 C.3     2  LIG2       -0.0294
      6    C       28.6060    0.2680    3.2570 C.3     2  LIG2       -0.0090
      7    C       29.3520    2.0230    5.8280 C.3     2  LIG2       -0.0468
      8    C       26.4560    1.0350    4.3160 C.3     2  LIG2       -0.0404
      9    C       30.0560    0.3340    3.8750 C.3     2  LIG2        0.0664
     10    C       27.7420   -0.9420    3.6700 C.3     2  LIG2       -0.0471
     11    C       30.1670    0.7950    5.3620 C.3     2  LIG2       -0.0237
     12    C       28.2700    5.4510    4.0360 C.3     2  LIG2       -0.0593
     13    C       26.8850    4.0320    5.6310 C.3     2  LIG2       -0.0593
     14    C       26.7480   -0.4230    4.7010 C.3     2  LIG2       -0.0498
     15    C       25.0680    1.2310    3.6730 C.3     2  LIG2       -0.0621
     16    C       30.8470   -0.9850    3.6920 C.3     2  LIG2       -0.0358
     17    H       28.7240    3.2050    2.6170 H       2  LIG2        0.0312
     18    H       30.1980    3.6260    4.6050 H       2  LIG2        0.0309
     19    H       27.1920    1.5780    2.4220 H       2  LIG2        0.0310
     20    H       28.7710    0.1410    2.1830 H       2  LIG2        0.0331
     21    H       29.8120    2.4320    6.7290 H       2  LIG2        0.0269
     22    H       28.3820    1.6670    6.1560 H       2  LIG2        0.0269
     23    H       26.4300    1.5700    5.2500 H       2  LIG2        0.0301
     24    H       27.2030   -1.3240    2.8000 H       2  LIG2        0.0269
     25    H       28.3070   -1.7790    4.0740 H       2  LIG2        0.0269
     26    H       31.2190    0.9670    5.6030 H       2  LIG2        0.0293
     27    H       29.8700   -0.0370    6.0020 H       2  LIG2        0.0293
     28    H       28.5160    6.1390    4.8450 H       2  LIG2        0.0235
     29    H       27.3900    5.8370    3.5220 H       2  LIG2        0.0235
     30    H       29.0990    5.4820    3.3270 H       2  LIG2        0.0235
     31    H       26.9280    4.9410    6.2320 H       2  LIG2        0.0235
     32    H       26.9290    3.2270    6.3580 H       2  LIG2        0.0235
     33    H       25.9040    4.0150    5.1550 H       2  LIG2        0.0235
     34    H       27.1880   -0.4700    5.6990 H       2  LIG2        0.0268
     35    H       25.8490   -1.0410    4.7260 H       2  LIG2        0.0268
     36    H       24.9660    0.6480    2.7560 H       2  LIG2        0.0233
     37    H       24.9000    2.2790    3.4220 H       2  LIG2        0.0233
     38    H       24.2720    0.9240    4.3510 H       2  LIG2        0.0233
     39    H       30.4890   -1.7720    4.3550 H       2  LIG2        0.0257
     40    H       31.9080   -0.8570    3.9170 H       2  LIG2        0.0257
     41    H       30.7780   -1.3590    2.6690 H       2  LIG2        0.0257
     42    H       31.6980    1.2670    3.3900 H       2  LIG2        0.2102
@<TRIPOS>BOND
     1    20     6    1
     2    19     5    1
     3    17     2    1
     4    41    16    1
     5    36    15    1
     6    24    10    1
     7     1    42    1
     8     1     9    1
     9     6     5    1
    10     6    10    1
    11     6     9    1
    12    30    12    1
    13     5     2    1
    14     5     8    1
    15    37    15    1
    16    29    12    1
    17     2     3    1
    18     2     4    1
    19    10    25    1
    20    10    14    1
    21    15     8    1
    22    15    38    1
    23    16     9    1
    24    16    40    1
    25    16    39    1
    26     9    11    1
    27    12     3    1
    28    12    28    1
    29     8    14    1
    30     8    23    1
    31     3     4    1
    32     3    13    1
    33    18     4    1
    34    14    35    1
    35    14    34    1
    36     4     7    1
    37    33    13    1
    38    11    26    1
    39    11     7    1
    40    11    27    1
    41    13    31    1
    42    13    32    1
    43     7    22    1
    44     7    21    1
@<TRIPOS>MOLECULE
11996452_9_run_14.pdb
 42 44 0 0 0
SMALL
GASTEIGER

@<TRIPOS>ATOM
      1    O       26.6650    5.4040    5.5950 O.3     2  LIG2       -0.3886
      2    C       28.2490    2.8830    5.2210 C.3     2  LIG2       -0.0289
      3    C       29.5860    2.6050    4.5180 C.3     2  LIG2       -0.0284
      4    C       28.8520    3.9040    4.2530 C.3     2  LIG2       -0.0319
      5    C       26.8200    2.3050    4.9390 C.3     2  LIG2       -0.0294
      6    C       25.6450    3.3400    4.9030 C.3     2  LIG2       -0.0090
      7    C       28.0430    4.2280    2.9780 C.3     2  LIG2       -0.0468
      8    C       26.5610    1.2670    3.8070 C.3     2  LIG2       -0.0404
      9    C       25.9380    4.8400    4.5130 C.3     2  LIG2        0.0664
     10    C       24.5460    2.6240    4.0910 C.3     2  LIG2       -0.0471
     11    C       26.7750    5.0800    3.2180 C.3     2  LIG2       -0.0237
     12    C       30.8300    2.6880    5.4250 C.3     2  LIG2       -0.0593
     13    C       29.8140    1.6050    3.3590 C.3     2  LIG2       -0.0593
     14    C       25.2690    1.7130    3.1070 C.3     2  LIG2       -0.0498
     15    C       26.5170   -0.1940    4.2970 C.3     2  LIG2       -0.0621
     16    C       24.6550    5.7070    4.4560 C.3     2  LIG2       -0.0358
     17    H       28.3160    3.1560    6.2760 H       2  LIG2        0.0312
     18    H       29.3090    4.8050    4.6640 H       2  LIG2        0.0309
     19    H       26.6240    1.7440    5.8550 H       2  LIG2        0.0310
     20    H       25.2510    3.3930    5.9220 H       2  LIG2        0.0331
     21    H       28.6940    4.7520    2.2750 H       2  LIG2        0.0269
     22    H       27.7400    3.3320    2.4490 H       2  LIG2        0.0269
     23    H       27.3190    1.3040    3.0440 H       2  LIG2        0.0301
     24    H       23.9250    2.0230    4.7590 H       2  LIG2        0.0269
     25    H       23.8700    3.2940    3.5630 H       2  LIG2        0.0269
     26    H       27.0530    6.1350    3.1650 H       2  LIG2        0.0293
     27    H       26.1260    4.9210    2.3560 H       2  LIG2        0.0293
     28    H       31.7170    2.9680    4.8550 H       2  LIG2        0.0235
     29    H       31.0280    1.7290    5.9040 H       2  LIG2        0.0235
     30    H       30.7140    3.4290    6.2190 H       2  LIG2        0.0235
     31    H       30.8490    1.6430    3.0190 H       2  LIG2        0.0235
     32    H       29.2290    1.7930    2.4650 H       2  LIG2        0.0235
     33    H       29.6270    0.5820    3.6870 H       2  LIG2        0.0235
     34    H       25.5050    2.2650    2.1940 H       2  LIG2        0.0268
     35    H       24.6370    0.8740    2.8110 H       2  LIG2        0.0268
     36    H       25.7110   -0.3510    5.0140 H       2  LIG2        0.0233
     37    H       27.4540   -0.4710    4.7810 H       2  LIG2        0.0233
     38    H       26.3610   -0.8830    3.4670 H       2  LIG2        0.0233
     39    H       24.0520    5.4870    3.5750 H       2  LIG2        0.0257
     40    H       24.8860    6.7720    4.4080 H       2  LIG2        0.0257
     41    H       24.0250    5.5530    5.3330 H       2  LIG2        0.0257
     42    H       26.9080    6.3030    5.3630 H       2  LIG2        0.2102
@<TRIPOS>BOND
     1    34    14    1
     2    21     7    1
     3    27    11    1
     4    22     7    1
     5    32    13    1
     6    35    14    1
     7     7    11    1
     8     7     4    1
     9    31    13    1
    10    23     8    1
    11    14     8    1
    12    14    10    1
    13    26    11    1
    14    11     9    1
    15    13    33    1
    16    13     3    1
    17    38    15    1
    18    25    10    1
    19    39    16    1
    20     8    15    1
    21     8     5    1
    22    10    24    1
    23    10     6    1
    24     4     3    1
    25     4    18    1
    26     4     2    1
    27    15    37    1
    28    15    36    1
    29    40    16    1
    30    16     9    1
    31    16    41    1
    32     9     6    1
    33     9     1    1
    34     3     2    1
    35     3    12    1
    36    28    12    1
    37     6     5    1
    38     6    20    1
    39     5     2    1
    40     5    19    1
    41     2    17    1
    42    42     1    1
    43    12    29    1
    44    12    30    1
@<TRIPOS>MOLECULE
11996452_9_run_6.pdb
 42 44 0 0 0
SMALL
GASTEIGER

@<TRIPOS>ATOM
      1    O       25.7520    0.3700    4.8650 O.3     2  LIG2       -0.3886
      2    C       26.9830    3.0970    5.0980 C.3     2  LIG2       -0.0289
      3    C       26.7640    4.3930    4.3050 C.3     2  LIG2       -0.0284
      4    C       26.2620    3.0760    3.7470 C.3     2  LIG2       -0.0319
      5    C       28.2790    2.2370    5.2910 C.3     2  LIG2       -0.0294
      6    C       28.1210    0.6900    5.1150 C.3     2  LIG2       -0.0090
      7    C       26.9280    2.2780    2.6050 C.3     2  LIG2       -0.0468
      8    C       29.6380    2.6430    4.6490 C.3     2  LIG2       -0.0404
      9    C       26.9770    0.1220    4.1900 C.3     2  LIG2        0.0664
     10    C       29.5540    0.2050    4.8070 C.3     2  LIG2       -0.0471
     11    C       26.8530    0.7420    2.7630 C.3     2  LIG2       -0.0237
     12    C       25.7000    5.3450    4.8900 C.3     2  LIG2       -0.0593
     13    C       27.8490    5.1850    3.5370 C.3     2  LIG2       -0.0593
     14    C       30.2450    1.3510    4.0810 C.3     2  LIG2       -0.0498
     15    C       30.5850    3.3930    5.6070 C.3     2  LIG2       -0.0621
     16    C       27.0120   -1.4220    4.0710 C.3     2  LIG2       -0.0358
     17    H       26.3350    2.9560    5.9650 H       2  LIG2        0.0312
     18    H       25.1800    2.9420    3.7370 H       2  LIG2        0.0309
     19    H       28.4570    2.3460    6.3630 H       2  LIG2        0.0310
     20    H       27.8970    0.2880    6.1070 H       2  LIG2        0.0331
     21    H       26.4590    2.5610    1.6620 H       2  LIG2        0.0269
     22    H       27.9720    2.5440    2.4780 H       2  LIG2        0.0269
     23    H       29.5060    3.2870    3.7950 H       2  LIG2        0.0301
     24    H       30.0790   -0.0090    5.7410 H       2  LIG2        0.0269
     25    H       29.6000   -0.7060    4.2130 H       2  LIG2        0.0269
     26    H       25.9250    0.3930    2.3040 H       2  LIG2        0.0293
     27    H       27.6440    0.3250    2.1380 H       2  LIG2        0.0293
     28    H       25.2410    5.9530    4.1090 H       2  LIG2        0.0235
     29    H       26.1420    6.0180    5.6230 H       2  LIG2        0.0235
     30    H       24.8940    4.8050    5.3900 H       2  LIG2        0.0235
     31    H       27.4080    6.0400    3.0230 H       2  LIG2        0.0235
     32    H       28.3560    4.6320    2.7520 H       2  LIG2        0.0235
     33    H       28.5990    5.5800    4.2220 H       2  LIG2        0.0235
     34    H       30.0520    1.2820    3.0080 H       2  LIG2        0.0268
     35    H       31.3270    1.3010    4.2090 H       2  LIG2        0.0268
     36    H       30.8520    2.7780    6.4680 H       2  LIG2        0.0233
     37    H       30.1190    4.3050    5.9800 H       2  LIG2        0.0233
     38    H       31.5090    3.6790    5.1050 H       2  LIG2        0.0233
     39    H       27.8330   -1.7660    3.4410 H       2  LIG2        0.0257
     40    H       26.0990   -1.8160    3.6210 H       2  LIG2        0.0257
     41    H       27.1230   -1.9000    5.0450 H       2  LIG2        0.0257
     42    H       25.8400    0.0740    5.7730 H       2  LIG2        0.2102
@<TRIPOS>BOND
     1    21     7    1
     2    27    11    1
     3    26    11    1
     4    22     7    1
     5     7    11    1
     6     7     4    1
     7    32    13    1
     8    11     9    1
     9    34    14    1
    10    31    13    1
    11    39    16    1
    12    13    33    1
    13    13     3    1
    14    40    16    1
    15    18     4    1
    16     4     3    1
    17     4     2    1
    18    23     8    1
    19    16     9    1
    20    16    41    1
    21    14    35    1
    22    14     8    1
    23    14    10    1
    24    28    12    1
    25     9     1    1
    26     9     6    1
    27    25    10    1
    28     3    12    1
    29     3     2    1
    30     8     5    1
    31     8    15    1
    32    10     6    1
    33    10    24    1
    34     1    42    1
    35    12    30    1
    36    12    29    1
    37     2     5    1
    38     2    17    1
    39    38    15    1
    40     6     5    1
    41     6    20    1
    42     5    19    1
    43    15    37    1
    44    15    36    1
@<TRIPOS>MOLECULE
11996452_9_run_6.pdb
 42 44 0 0 0
SMALL
GASTEIGER

@<TRIPOS>ATOM
      1    O       29.3050    4.1860    4.1050 O.3     2  LIG2       -0.3886
      2    C       26.3340    4.2990    3.6920 C.3     2  LIG2       -0.0289
      3    C       25.1950    4.8340    4.5710 C.3     2  LIG2       -0.0284
      4    C       26.5620    4.5890    5.1770 C.3     2  LIG2       -0.0319
      5    C       26.5930    2.8540    3.1420 C.3     2  LIG2       -0.0294
      6    C       28.0520    2.3060    3.2830 C.3     2  LIG2       -0.0090
      7    C       26.9370    3.3930    6.0800 C.3     2  LIG2       -0.0468
      8    C       25.6210    1.6740    3.4400 C.3     2  LIG2       -0.0404
      9    C       28.9800    2.8440    4.4400 C.3     2  LIG2        0.0664
     10    C       27.8820    0.7740    3.2000 C.3     2  LIG2       -0.0471
     11    C       28.3740    2.8600    5.8780 C.3     2  LIG2       -0.0237
     12    C       24.8080    6.3050    4.3140 C.3     2  LIG2       -0.0593
     13    C       23.9780    4.0240    5.0760 C.3     2  LIG2       -0.0593
     14    C       26.5070    0.4670    3.7800 C.3     2  LIG2       -0.0498
     15    C       24.6120    1.3930    2.3090 C.3     2  LIG2       -0.0621
     16    C       30.3610    2.1430    4.4780 C.3     2  LIG2       -0.0358
     17    H       26.7860    5.0210    3.0090 H       2  LIG2        0.0312
     18    H       27.1300    5.4790    5.4530 H       2  LIG2        0.0309
     19    H       26.4910    3.0070    2.0650 H       2  LIG2        0.0310
     20    H       28.5750    2.5800    2.3620 H       2  LIG2        0.0331
     21    H       26.8130    3.6900    7.1220 H       2  LIG2        0.0269
     22    H       26.2570    2.5590    5.9530 H       2  LIG2        0.0269
     23    H       25.0350    1.8480    4.3270 H       2  LIG2        0.0301
     24    H       27.9210    0.4550    2.1570 H       2  LIG2        0.0269
     25    H       28.6510    0.2090    3.7230 H       2  LIG2        0.0269
     26    H       29.0440    3.4140    6.5400 H       2  LIG2        0.0293
     27    H       28.3850    1.8400    6.2660 H       2  LIG2        0.0293
     28    H       24.3940    6.7670    5.2100 H       2  LIG2        0.0235
     29    H       24.0620    6.3780    3.5230 H       2  LIG2        0.0235
     30    H       25.6640    6.9100    4.0090 H       2  LIG2        0.0235
     31    H       23.3490    4.6390    5.7210 H       2  LIG2        0.0235
     32    H       24.2190    3.1580    5.6840 H       2  LIG2        0.0235
     33    H       23.3540    3.7000    4.2430 H       2  LIG2        0.0235
     34    H       26.5790    0.3430    4.8630 H       2  LIG2        0.0268
     35    H       26.1150   -0.4700    3.3830 H       2  LIG2        0.0268
     36    H       25.1170    1.1160    1.3830 H       2  LIG2        0.0233
     37    H       24.0000    2.2720    2.1050 H       2  LIG2        0.0233
     38    H       23.9380    0.5790    2.5760 H       2  LIG2        0.0233
     39    H       30.2930    1.1260    4.8660 H       2  LIG2        0.0257
     40    H       31.0660    2.6680    5.1250 H       2  LIG2        0.0257
     41    H       30.8130    2.0870    3.4870 H       2  LIG2        0.0257
     42    H       29.9030    4.1760    3.3550 H       2  LIG2        0.2102
@<TRIPOS>BOND
     1    36    15    1
     2    19     5    1
     3    37    15    1
     4    24    10    1
     5    15    38    1
     6    15     8    1
     7    20     6    1
     8    17     2    1
     9     5     6    1
    10     5     8    1
    11     5     2    1
    12    10     6    1
    13    10    25    1
    14    10    14    1
    15     6     9    1
    16    42     1    1
    17    35    14    1
    18     8    14    1
    19     8    23    1
    20    41    16    1
    21    29    12    1
    22     2     3    1
    23     2     4    1
    24    14    34    1
    25    30    12    1
    26     1     9    1
    27    33    13    1
    28    12     3    1
    29    12    28    1
    30     9    16    1
    31     9    11    1
    32    16    39    1
    33    16    40    1
    34     3    13    1
    35     3     4    1
    36    13    32    1
    37    13    31    1
    38     4    18    1
    39     4     7    1
    40    11     7    1
    41    11    27    1
    42    11    26    1
    43    22     7    1
    44     7    21    1
@<TRIPOS>MOLECULE
11996452_9_run_11.pdb
 42 44 0 0 0
SMALL
GASTEIGER

@<TRIPOS>ATOM
      1    O       29.1280    2.0910    2.6050 O.3     2  LIG2       -0.3886
      2    C       27.3530    4.2890    3.6180 C.3     2  LIG2       -0.0289
      3    C       27.4890    5.2530    4.8050 C.3     2  LIG2       -0.0284
      4    C       28.3640    4.0170    4.7350 C.3     2  LIG2       -0.0319
      5    C       26.2490    3.2210    3.3040 C.3     2  LIG2       -0.0294
      6    C       26.7530    1.8110    2.8490 C.3     2  LIG2       -0.0090
      7    C       28.1640    2.7330    5.5700 C.3     2  LIG2       -0.0468
      8    C       25.0290    2.9990    4.2450 C.3     2  LIG2       -0.0404
      9    C       28.1760    1.3050    3.3060 C.3     2  LIG2        0.0664
     10    C       25.5640    0.8770    3.1540 C.3     2  LIG2       -0.0471
     11    C       28.5080    1.4220    4.8270 C.3     2  LIG2       -0.0237
     12    C       28.1680    6.5990    4.4790 C.3     2  LIG2       -0.0593
     13    C       26.4810    5.4110    5.9680 C.3     2  LIG2       -0.0593
     14    C       24.8490    1.4780    4.3570 C.3     2  LIG2       -0.0498
     15    C       23.7500    3.7340    3.7970 C.3     2  LIG2       -0.0621
     16    C       28.4820   -0.1360    2.8290 C.3     2  LIG2       -0.0358
     17    H       27.7900    4.6300    2.6770 H       2  LIG2        0.0312
     18    H       29.4220    4.1910    4.5340 H       2  LIG2        0.0309
     19    H       25.8030    3.6280    2.3930 H       2  LIG2        0.0310
     20    H       26.8110    1.8420    1.7570 H       2  LIG2        0.0331
     21    H       28.7780    2.8030    6.4690 H       2  LIG2        0.0269
     22    H       27.1500    2.6430    5.9410 H       2  LIG2        0.0269
     23    H       25.2280    3.3300    5.2500 H       2  LIG2        0.0301
     24    H       24.8860    0.8510    2.2990 H       2  LIG2        0.0269
     25    H       25.8450   -0.1550    3.3550 H       2  LIG2        0.0269
     26    H       29.5700    1.2090    4.9760 H       2  LIG2        0.0293
     27    H       27.9890    0.6200    5.3540 H       2  LIG2        0.0293
     28    H       28.6670    7.0130    5.3560 H       2  LIG2        0.0235
     29    H       27.4370    7.3290    4.1320 H       2  LIG2        0.0235
     30    H       28.9240    6.5010    3.6980 H       2  LIG2        0.0235
     31    H       26.8490    6.1330    6.6990 H       2  LIG2        0.0235
     32    H       26.2980    4.5120    6.5470 H       2  LIG2        0.0235
     33    H       25.5250    5.7900    5.6050 H       2  LIG2        0.0235
     34    H       25.3010    1.1100    5.2810 H       2  LIG2        0.0268
     35    H       23.8000    1.1770    4.3810 H       2  LIG2        0.0268
     36    H       23.4160    3.3930    2.8160 H       2  LIG2        0.0233
     37    H       23.9200    4.8100    3.7370 H       2  LIG2        0.0233
     38    H       22.9340    3.5700    4.5010 H       2  LIG2        0.0233
     39    H       27.9220   -0.8820    3.3930 H       2  LIG2        0.0257
     40    H       29.5360   -0.3900    2.9540 H       2  LIG2        0.0257
     41    H       28.2410   -0.2720    1.7740 H       2  LIG2        0.0257
     42    H       30.0040    1.8620    2.9220 H       2  LIG2        0.2102
@<TRIPOS>BOND
     1    20     6    1
     2    41    16    1
     3    24    10    1
     4    19     5    1
     5     1    42    1
     6     1     9    1
     7    17     2    1
     8    36    15    1
     9    16    40    1
    10    16     9    1
    11    16    39    1
    12     6    10    1
    13     6     5    1
    14     6     9    1
    15    10    25    1
    16    10    14    1
    17     5     2    1
    18     5     8    1
    19     9    11    1
    20     2     4    1
    21     2     3    1
    22    30    12    1
    23    37    15    1
    24    15     8    1
    25    15    38    1
    26    29    12    1
    27     8    14    1
    28     8    23    1
    29    14    35    1
    30    14    34    1
    31    12     3    1
    32    12    28    1
    33    18     4    1
    34     4     3    1
    35     4     7    1
    36     3    13    1
    37    11    26    1
    38    11    27    1
    39    11     7    1
    40     7    22    1
    41     7    21    1
    42    33    13    1
    43    13    32    1
    44    13    31    1
@<TRIPOS>MOLECULE
11996452_9_run_17.pdb
 42 44 0 0 0
SMALL
GASTEIGER

@<TRIPOS>ATOM
      1    O       28.6820    5.1140    5.2760 O.3     2  LIG2       -0.3886
      2    C       27.0150    2.6180    5.2250 C.3     2  LIG2       -0.0289
      3    C       27.0900    1.3510    4.3610 C.3     2  LIG2       -0.0284
      4    C       27.8410    2.5970    3.9370 C.3     2  LIG2       -0.0319
      5    C       25.8610    3.6680    5.3810 C.3     2  LIG2       -0.0294
      6    C       26.2790    5.1760    5.3260 C.3     2  LIG2       -0.0090
      7    C       27.4110    3.5580    2.8070 C.3     2  LIG2       -0.0468
      8    C       24.5140    3.5300    4.6130 C.3     2  LIG2       -0.0404
      9    C       27.5740    5.5990    4.5310 C.3     2  LIG2        0.0664
     10    C       24.9740    5.9080    4.9480 C.3     2  LIG2       -0.0471
     11    C       27.7180    5.0490    3.0770 C.3     2  LIG2       -0.0237
     12    C       27.9340    0.2050    4.9550 C.3     2  LIG2       -0.0593
     13    C       25.9610    0.7950    3.4610 C.3     2  LIG2       -0.0593
     14    C       24.1730    4.9340    4.0940 C.3     2  LIG2       -0.0498
     15    C       23.3820    2.8930    5.4430 C.3     2  LIG2       -0.0621
     16    C       27.7970    7.1310    4.5190 C.3     2  LIG2       -0.0358
     17    H       27.6010    2.6000    6.1460 H       2  LIG2        0.0312
     18    H       28.9280    2.5510    4.0160 H       2  LIG2        0.0309
     19    H       25.5780    3.5300    6.4270 H       2  LIG2        0.0310
     20    H       26.4800    5.4770    6.3580 H       2  LIG2        0.0331
     21    H       27.9070    3.2560    1.8840 H       2  LIG2        0.0269
     22    H       26.3530    3.4760    2.5840 H       2  LIG2        0.0269
     23    H       24.6130    2.9230    3.7290 H       2  LIG2        0.0301
     24    H       24.4130    6.1520    5.8530 H       2  LIG2        0.0269
     25    H       25.1250    6.8460    4.4170 H       2  LIG2        0.0269
     26    H       28.7250    5.2650    2.7140 H       2  LIG2        0.0293
     27    H       27.0590    5.6260    2.4260 H       2  LIG2        0.0293
     28    H       28.3540   -0.4250    4.1700 H       2  LIG2        0.0235
     29    H       27.3290   -0.4260    5.6050 H       2  LIG2        0.0235
     30    H       28.7710    0.5740    5.5510 H       2  LIG2        0.0235
     31    H       26.3010   -0.0910    2.9230 H       2  LIG2        0.0235
     32    H       25.6180    1.4680    2.6820 H       2  LIG2        0.0235
     33    H       25.1020    0.4910    4.0590 H       2  LIG2        0.0235
     34    H       24.4640    5.0320    3.0460 H       2  LIG2        0.0268
     35    H       23.1050    5.1560    4.1440 H       2  LIG2        0.0268
     36    H       23.1450    3.4940    6.3230 H       2  LIG2        0.0233
     37    H       23.6630    1.8970    5.7850 H       2  LIG2        0.0233
     38    H       22.4700    2.7930    4.8550 H       2  LIG2        0.0233
     39    H       27.0980    7.6410    3.8550 H       2  LIG2        0.0257
     40    H       28.7960    7.3940    4.1660 H       2  LIG2        0.0257
     41    H       27.6820    7.5640    5.5130 H       2  LIG2        0.0257
     42    H       29.4550    5.1140    4.7080 H       2  LIG2        0.2102
@<TRIPOS>BOND
     1    21     7    1
     2    27    11    1
     3    22     7    1
     4    32    13    1
     5    26    11    1
     6     7    11    1
     7     7     4    1
     8    31    13    1
     9    34    14    1
    10    11     9    1
    11    13    33    1
    12    13     3    1
    13    23     8    1
    14    39    16    1
    15     4    18    1
    16     4     3    1
    17     4     2    1
    18    14    35    1
    19    14     8    1
    20    14    10    1
    21    40    16    1
    22    28    12    1
    23     3    12    1
    24     3     2    1
    25    25    10    1
    26    16     9    1
    27    16    41    1
    28     9     1    1
    29     9     6    1
    30     8     5    1
    31     8    15    1
    32    42     1    1
    33    38    15    1
    34    10     6    1
    35    10    24    1
    36    12    30    1
    37    12    29    1
    38     2     5    1
    39     2    17    1
    40     6     5    1
    41     6    20    1
    42     5    19    1
    43    15    37    1
    44    15    36    1
@<TRIPOS>MOLECULE
11996452_9_run_12.pdb
 42 44 0 0 0
SMALL
GASTEIGER

@<TRIPOS>ATOM
      1    O       26.3130    0.9330    5.1060 O.3     2  LIG2       -0.3886
      2    C       29.0830    0.1010    5.9070 C.3     2  LIG2       -0.0289
      3    C       30.1480    0.7820    6.7780 C.3     2  LIG2       -0.0284
      4    C       28.9730    1.5870    6.2580 C.3     2  LIG2       -0.0319
      5    C       29.1340   -0.3310    4.4010 C.3     2  LIG2       -0.0294
      6    C       27.8910    0.0430    3.5260 C.3     2  LIG2       -0.0090
      7    C       29.0280    2.5940    5.0890 C.3     2  LIG2       -0.0468
      8    C       30.4030   -0.1110    3.5250 C.3     2  LIG2       -0.0404
      9    C       27.0060    1.2880    3.9180 C.3     2  LIG2        0.0664
     10    C       28.4330    0.0160    2.0820 C.3     2  LIG2       -0.0471
     11    C       27.7610    2.6250    4.2050 C.3     2  LIG2       -0.0237
     12    C       30.1140    0.3970    8.2710 C.3     2  LIG2       -0.0593
     13    C       31.5840    1.1530    6.3370 C.3     2  LIG2       -0.0593
     14    C       29.9010    0.4120    2.1720 C.3     2  LIG2       -0.0498
     15    C       31.3030   -1.3570    3.4040 C.3     2  LIG2       -0.0621
     16    C       25.8650    1.5570    2.9060 C.3     2  LIG2       -0.0358
     17    H       28.3820   -0.5480    6.4350 H       2  LIG2        0.0312
     18    H       28.2360    1.8930    7.0020 H       2  LIG2        0.0309
     19    H       29.0600   -1.4180    4.4820 H       2  LIG2        0.0310
     20    H       27.2070   -0.8090    3.5840 H       2  LIG2        0.0331
     21    H       29.2010    3.5920    5.4950 H       2  LIG2        0.0269
     22    H       29.8770    2.4160    4.4390 H       2  LIG2        0.0269
     23    H       31.0300    0.6740    3.9120 H       2  LIG2        0.0301
     24    H       28.3490   -0.9940    1.6750 H       2  LIG2        0.0269
     25    H       27.9040    0.6700    1.3920 H       2  LIG2        0.0269
     26    H       27.0580    3.3440    4.6330 H       2  LIG2        0.0293
     27    H       28.0570    3.0620    3.2500 H       2  LIG2        0.0293
     28    H       30.5040    1.2020    8.8960 H       2  LIG2        0.0235
     29    H       30.7130   -0.4930    8.4570 H       2  LIG2        0.0235
     30    H       29.1010    0.1850    8.6200 H       2  LIG2        0.0235
     31    H       32.1100    1.6700    7.1400 H       2  LIG2        0.0235
     32    H       31.6470    1.8330    5.4930 H       2  LIG2        0.0235
     33    H       32.1620    0.2580    6.1050 H       2  LIG2        0.0235
     34    H       29.9970    1.4990    2.1270 H       2  LIG2        0.0268
     35    H       30.4680    0.0130    1.3280 H       2  LIG2        0.0268
     36    H       30.7750   -2.1870    2.9330 H       2  LIG2        0.0233
     37    H       31.6420   -1.6900    4.3860 H       2  LIG2        0.0233
     38    H       32.1890   -1.1460    2.8060 H       2  LIG2        0.0233
     39    H       26.2360    1.9840    1.9740 H       2  LIG2        0.0257
     40    H       25.1350    2.2680    3.2960 H       2  LIG2        0.0257
     41    H       25.3240    0.6430    2.6560 H       2  LIG2        0.0257
     42    H       25.8350    1.7030    5.4210 H       2  LIG2        0.2102
@<TRIPOS>BOND
     1    35    14    1
     2    25    10    1
     3    24    10    1
     4    39    16    1
     5    10    14    1
     6    10     6    1
     7    34    14    1
     8    14     8    1
     9    41    16    1
    10    38    15    1
    11    16    40    1
    12    16     9    1
    13    36    15    1
    14    27    11    1
    15    15     8    1
    16    15    37    1
    17     8    23    1
    18     8     5    1
    19     6    20    1
    20     6     9    1
    21     6     5    1
    22     9    11    1
    23     9     1    1
    24    11    26    1
    25    11     7    1
    26     5    19    1
    27     5     2    1
    28    22     7    1
    29     7    21    1
    30     7     4    1
    31     1    42    1
    32    32    13    1
    33     2     4    1
    34     2    17    1
    35     2     3    1
    36    33    13    1
    37     4     3    1
    38     4    18    1
    39    13     3    1
    40    13    31    1
    41     3    12    1
    42    12    29    1
    43    12    30    1
    44    12    28    1
@<TRIPOS>MOLECULE
11996452_9_run_5.pdb
 42 44 0 0 0
SMALL
GASTEIGER

@<TRIPOS>ATOM
      1    O       27.0980    3.8930    6.1130 O.3     2  LIG2       -0.3886
      2    C       28.5990    1.2940    6.1090 C.3     2  LIG2       -0.0289
      3    C       30.0900    0.9700    6.2790 C.3     2  LIG2       -0.0284
      4    C       29.6590    2.3910    5.9770 C.3     2  LIG2       -0.0319
      5    C       27.6340    1.0090    4.9080 C.3     2  LIG2       -0.0294
      6    C       26.7140    2.1930    4.4570 C.3     2  LIG2       -0.0090
      7    C       29.7830    3.0890    4.6050 C.3     2  LIG2       -0.0468
      8    C       28.1160    0.2780    3.6200 C.3     2  LIG2       -0.0404
      9    C       27.1750    3.6800    4.7110 C.3     2  LIG2        0.0664
     10    C       26.3320    1.8340    3.0060 C.3     2  LIG2       -0.0471
     11    C       28.6230    4.0540    4.2660 C.3     2  LIG2       -0.0237
     12    C       30.5340    0.6760    7.7270 C.3     2  LIG2       -0.0593
     13    C       30.9770    0.2080    5.2650 C.3     2  LIG2       -0.0593
     14    C       27.5080    1.0480    2.4390 C.3     2  LIG2       -0.0498
     15    C       27.7940   -1.2290    3.5980 C.3     2  LIG2       -0.0621
     16    C       26.1830    4.7230    4.1380 C.3     2  LIG2       -0.0358
     17    H       28.0130    1.3310    7.0290 H       2  LIG2        0.0312
     18    H       29.7700    3.1080    6.7910 H       2  LIG2        0.0309
     19    H       26.9270    0.3060    5.3550 H       2  LIG2        0.0310
     20    H       25.7840    2.0940    5.0240 H       2  LIG2        0.0331
     21    H       30.7230    3.6430    4.5790 H       2  LIG2        0.0269
     22    H       29.8660    2.3770    3.7920 H       2  LIG2        0.0269
     23    H       29.1810    0.3580    3.4860 H       2  LIG2        0.0301
     24    H       25.4370    1.2080    3.0040 H       2  LIG2        0.0269
     25    H       26.1090    2.6920    2.3760 H       2  LIG2        0.0269
     26    H       28.8710    5.0430    4.6570 H       2  LIG2        0.0293
     27    H       28.6270    4.1760    3.1820 H       2  LIG2        0.0293
     28    H       31.5830    0.9320    7.8780 H       2  LIG2        0.0235
     29    H       30.4070   -0.3790    7.9650 H       2  LIG2        0.0235
     30    H       29.9580    1.2460    8.4590 H       2  LIG2        0.0235
     31    H       32.0080    0.1600    5.6190 H       2  LIG2        0.0235
     32    H       31.0510    0.6630    4.2830 H       2  LIG2        0.0235
     33    H       30.6360   -0.8200    5.1470 H       2  LIG2        0.0235
     34    H       28.2440    1.7350    2.0150 H       2  LIG2        0.0268
     35    H       27.1870    0.3930    1.6270 H       2  LIG2        0.0268
     36    H       26.7180   -1.4090    3.6390 H       2  LIG2        0.0233
     37    H       28.2490   -1.7380    4.4490 H       2  LIG2        0.0233
     38    H       28.1740   -1.7010    2.6920 H       2  LIG2        0.0233
     39    H       26.2360    4.7830    3.0510 H       2  LIG2        0.0257
     40    H       26.3900    5.7280    4.5080 H       2  LIG2        0.0257
     41    H       25.1510    4.4870    4.4050 H       2  LIG2        0.0257
     42    H       26.2170    3.6540    6.4100 H       2  LIG2        0.2102
@<TRIPOS>BOND
     1    35    14    1
     2    34    14    1
     3    25    10    1
     4    14    10    1
     5    14     8    1
     6    38    15    1
     7    24    10    1
     8    10     6    1
     9    39    16    1
    10    27    11    1
    11    23     8    1
    12    15     8    1
    13    15    36    1
    14    15    37    1
    15     8     5    1
    16    22     7    1
    17    16    41    1
    18    16    40    1
    19    16     9    1
    20    11     7    1
    21    11    26    1
    22    11     9    1
    23    32    13    1
    24     6     9    1
    25     6     5    1
    26     6    20    1
    27    21     7    1
    28     7     4    1
    29     9     1    1
    30     5    19    1
    31     5     2    1
    32    33    13    1
    33    13    31    1
    34    13     3    1
    35     4     2    1
    36     4     3    1
    37     4    18    1
    38     2     3    1
    39     2    17    1
    40     1    42    1
    41     3    12    1
    42    12    28    1
    43    12    29    1
    44    12    30    1
@<TRIPOS>MOLECULE
11996452_9_run_6.pdb
 42 44 0 0 0
SMALL
GASTEIGER

@<TRIPOS>ATOM
      1    O       26.4350    0.4590    4.9060 O.3     2  LIG2       -0.3886
      2    C       25.2820    3.2280    5.0020 C.3     2  LIG2       -0.0289
      3    C       24.2430    3.9390    4.1230 C.3     2  LIG2       -0.0284
      4    C       24.8930    2.6590    3.6350 C.3     2  LIG2       -0.0319
      5    C       26.7810    3.5880    5.2870 C.3     2  LIG2       -0.0294
      6    C       27.8080    2.4100    5.2050 C.3     2  LIG2       -0.0090
      7    C       26.0040    2.5730    2.5660 C.3     2  LIG2       -0.0468
      8    C       27.4590    4.8420    4.6600 C.3     2  LIG2       -0.0404
      9    C       27.4980    1.1660    4.2850 C.3     2  LIG2        0.0664
     10    C       29.1610    3.1140    4.9700 C.3     2  LIG2       -0.0471
     11    C       27.0570    1.4690    2.8180 C.3     2  LIG2       -0.0237
     12    C       22.7860    3.8280    4.6150 C.3     2  LIG2       -0.0593
     13    C       24.4620    5.2540    3.3380 C.3     2  LIG2       -0.0593
     14    C       28.8490    4.3860    4.1930 C.3     2  LIG2       -0.0498
     15    C       27.4990    6.0660    5.5960 C.3     2  LIG2       -0.0621
     16    C       28.6510    0.1320    4.2640 C.3     2  LIG2       -0.0358
     17    H       24.8840    2.6790    5.8580 H       2  LIG2        0.0312
     18    H       24.2500    1.7780    3.6020 H       2  LIG2        0.0309
     19    H       26.7530    3.8160    6.3550 H       2  LIG2        0.0310
     20    H       27.8800    1.9930    6.2130 H       2  LIG2        0.0331
     21    H       25.5390    2.4030    1.5930 H       2  LIG2        0.0269
     22    H       26.5330    3.5120    2.4530 H       2  LIG2        0.0269
     23    H       26.9570    5.1670    3.7650 H       2  LIG2        0.0301
     24    H       29.6140    3.3710    5.9300 H       2  LIG2        0.0269
     25    H       29.8930    2.5110    4.4360 H       2  LIG2        0.0269
     26    H       26.7050    0.5440    2.3550 H       2  LIG2        0.0293
     27    H       27.9420    1.7460    2.2440 H       2  LIG2        0.0293
     28    H       22.0820    3.8930    3.7850 H       2  LIG2        0.0235
     29    H       22.5510    4.6280    5.3170 H       2  LIG2        0.0235
     30    H       22.5920    2.8820    5.1240 H       2  LIG2        0.0235
     31    H       23.5730    5.5070    2.7590 H       2  LIG2        0.0235
     32    H       25.2620    5.2270    2.6050 H       2  LIG2        0.0235
     33    H       24.6440    6.0860    4.0190 H       2  LIG2        0.0235
     34    H       28.8380    4.1750    3.1220 H       2  LIG2        0.0268
     35    H       29.6180    5.1430    4.3550 H       2  LIG2        0.0268
     36    H       28.0710    5.8580    6.5020 H       2  LIG2        0.0233
     37    H       26.4930    6.3590    5.8980 H       2  LIG2        0.0233
     38    H       27.9570    6.9240    5.1050 H       2  LIG2        0.0233
     39    H       29.5030    0.4810    3.6820 H       2  LIG2        0.0257
     40    H       28.3410   -0.8130    3.8140 H       2  LIG2        0.0257
     41    H       29.0090   -0.0930    5.2700 H       2  LIG2        0.0257
     42    H       26.6550    0.3310    5.8320 H       2  LIG2        0.2102
@<TRIPOS>BOND
     1    21     7    1
     2    27    11    1
     3    26    11    1
     4    22     7    1
     5     7    11    1
     6     7     4    1
     7    32    13    1
     8    31    13    1
     9    11     9    1
    10    34    14    1
    11    13    33    1
    12    13     3    1
    13    18     4    1
    14     4     3    1
    15     4     2    1
    16    39    16    1
    17    23     8    1
    18    28    12    1
    19    40    16    1
    20     3    12    1
    21     3     2    1
    22    14    35    1
    23    14     8    1
    24    14    10    1
    25    16     9    1
    26    16    41    1
    27     9     1    1
    28     9     6    1
    29    25    10    1
    30    12    30    1
    31    12    29    1
    32     8     5    1
    33     8    15    1
    34     1    42    1
    35    10     6    1
    36    10    24    1
    37     2     5    1
    38     2    17    1
    39    38    15    1
    40     6     5    1
    41     6    20    1
    42     5    19    1
    43    15    37    1
    44    15    36    1
@<TRIPOS>MOLECULE
11996452_9_run_6.pdb
 42 44 0 0 0
SMALL
GASTEIGER

@<TRIPOS>ATOM
      1    O       25.1000    2.3850    2.2140 O.3     2  LIG2       -0.3886
      2    C       27.8380    1.4760    3.0410 C.3     2  LIG2       -0.0289
      3    C       28.3590    0.1300    3.5630 C.3     2  LIG2       -0.0284
      4    C       26.8690    0.4080    3.5550 C.3     2  LIG2       -0.0319
      5    C       27.8480    2.8920    3.7130 C.3     2  LIG2       -0.0294
      6    C       26.5130    3.7080    3.6390 C.3     2  LIG2       -0.0090
      7    C       26.0200    0.7640    4.7940 C.3     2  LIG2       -0.0468
      8    C       28.4600    3.1290    5.1260 C.3     2  LIG2       -0.0404
      9    C       25.1380    2.9450    3.5180 C.3     2  LIG2        0.0664
     10    C       26.6340    4.7220    4.7960 C.3     2  LIG2       -0.0471
     11    C       24.8880    1.7820    4.5290 C.3     2  LIG2       -0.0237
     12    C       28.8880   -0.8310    2.4780 C.3     2  LIG2       -0.0593
     13    C       29.0850   -0.1050    4.9090 C.3     2  LIG2       -0.0593
     14    C       27.4760    4.0440    5.8690 C.3     2  LIG2       -0.0498
     15    C       29.9020    3.6730    5.1000 C.3     2  LIG2       -0.0621
     16    C       23.9190    3.9000    3.5310 C.3     2  LIG2       -0.0358
     17    H       27.8500    1.6020    1.9570 H       2  LIG2        0.0312
     18    H       26.2820   -0.1540    2.8270 H       2  LIG2        0.0309
     19    H       28.5120    3.4480    3.0470 H       2  LIG2        0.0310
     20    H       26.5720    4.3120    2.7290 H       2  LIG2        0.0331
     21    H       25.5850   -0.1530    5.1940 H       2  LIG2        0.0269
     22    H       26.6260    1.1520    5.6050 H       2  LIG2        0.0269
     23    H       28.4920    2.2240    5.7080 H       2  LIG2        0.0301
     24    H       27.1420    5.6230    4.4450 H       2  LIG2        0.0269
     25    H       25.6810    5.0470    5.2080 H       2  LIG2        0.0269
     26    H       23.9940    1.2330    4.2240 H       2  LIG2        0.0293
     27    H       24.6280    2.2180    5.4950 H       2  LIG2        0.0293
     28    H       28.7830   -1.8710    2.7860 H       2  LIG2        0.0235
     29    H       29.9420   -0.6450    2.2760 H       2  LIG2        0.0235
     30    H       28.3520   -0.7210    1.5330 H       2  LIG2        0.0235
     31    H       29.3020   -1.1660    5.0470 H       2  LIG2        0.0235
     32    H       28.5200    0.1710    5.7930 H       2  LIG2        0.0235
     33    H       30.0410    0.4180    4.9310 H       2  LIG2        0.0235
     34    H       26.8350    3.4550    6.5280 H       2  LIG2        0.0268
     35    H       27.9780    4.7820    6.4980 H       2  LIG2        0.0268
     36    H       29.9540    4.6430    4.6040 H       2  LIG2        0.0233
     37    H       30.5670    2.9910    4.5700 H       2  LIG2        0.0233
     38    H       30.2950    3.7960    6.1090 H       2  LIG2        0.0233
     39    H       23.7250    4.3040    4.5250 H       2  LIG2        0.0257
     40    H       23.0020    3.3930    3.2260 H       2  LIG2        0.0257
     41    H       24.0600    4.7440    2.8550 H       2  LIG2        0.0257
     42    H       24.3090    1.8480    2.1360 H       2  LIG2        0.2102
@<TRIPOS>BOND
     1    30    12    1
     2    17     2    1
     3    42     1    1
     4     1     9    1
     5    29    12    1
     6    12    28    1
     7    12     3    1
     8    20     6    1
     9    18     4    1
    10    41    16    1
    11     2     4    1
    12     2     3    1
    13     2     5    1
    14    19     5    1
    15    40    16    1
    16     9    16    1
    17     9     6    1
    18     9    11    1
    19    16    39    1
    20     4     3    1
    21     4     7    1
    22     3    13    1
    23     6     5    1
    24     6    10    1
    25     5     8    1
    26    26    11    1
    27    24    10    1
    28    11     7    1
    29    11    27    1
    30    37    15    1
    31    36    15    1
    32     7    21    1
    33     7    22    1
    34    10    25    1
    35    10    14    1
    36    13    33    1
    37    13    31    1
    38    13    32    1
    39    15     8    1
    40    15    38    1
    41     8    23    1
    42     8    14    1
    43    14    35    1
    44    14    34    1
