@<TRIPOS>MOLECULE
11996452_4_run_24.pdb
 42 44 0 0 0
SMALL
GASTEIGER

@<TRIPOS>ATOM
      1    O       26.5980    5.4050    6.2810 O.3     2  LIG2       -0.3886
      2    C       27.1690    2.5330    3.4530 C.3     2  LIG2       -0.0289
      3    C       28.2390    1.5580    3.9090 C.3     2  LIG2       -0.0284
      4    C       28.6110    3.0060    3.6760 C.3     2  LIG2       -0.0319
      5    C       26.0690    3.0970    4.3870 C.3     2  LIG2       -0.0294
      6    C       25.8260    4.6070    4.1060 C.3     2  LIG2       -0.0090
      7    C       28.9080    4.0190    4.8060 C.3     2  LIG2       -0.0468
      8    C       24.6820    2.3920    4.3280 C.3     2  LIG2       -0.0404
      9    C       26.7620    5.5960    4.8840 C.3     2  LIG2        0.0664
     10    C       24.3150    4.7970    4.3380 C.3     2  LIG2       -0.0471
     11    C       28.2790    5.4130    4.5720 C.3     2  LIG2       -0.0237
     12    C       28.2180    0.9490    5.3300 C.3     2  LIG2       -0.0593
     13    C       28.7220    0.5350    2.8630 C.3     2  LIG2       -0.0593
     14    C       23.6810    3.4780    3.9100 C.3     2  LIG2       -0.0498
     15    C       24.5910    1.1290    3.4460 C.3     2  LIG2       -0.0621
     16    C       26.3840    7.0710    4.6090 C.3     2  LIG2       -0.0358
     17    H       26.8400    2.4890    2.4130 H       2  LIG2        0.0312
     18    H       29.2410    3.1980    2.8060 H       2  LIG2        0.0309
     19    H       26.3900    3.0050    5.4220 H       2  LIG2        0.0310
     20    H       25.9890    4.7890    3.0420 H       2  LIG2        0.0331
     21    H       28.6220    3.6510    5.7890 H       2  LIG2        0.0269
     22    H       29.9900    4.1440    4.8540 H       2  LIG2        0.0269
     23    H       24.4170    2.0840    5.3420 H       2  LIG2        0.0301
     24    H       24.1010    4.9970    5.3890 H       2  LIG2        0.0269
     25    H       23.9140    5.6310    3.7580 H       2  LIG2        0.0269
     26    H       28.8490    6.1420    5.1500 H       2  LIG2        0.0293
     27    H       28.4580    5.6870    3.5300 H       2  LIG2        0.0293
     28    H       29.2130    0.6090    5.6170 H       2  LIG2        0.0235
     29    H       27.5520    0.0860    5.3680 H       2  LIG2        0.0235
     30    H       27.8860    1.6310    6.1090 H       2  LIG2        0.0235
     31    H       29.7350    0.1980    3.0830 H       2  LIG2        0.0235
     32    H       28.7300    0.9530    1.8550 H       2  LIG2        0.0235
     33    H       28.0730   -0.3400    2.8450 H       2  LIG2        0.0235
     34    H       23.5250    3.4690    2.8290 H       2  LIG2        0.0268
     35    H       22.7060    3.3370    4.3790 H       2  LIG2        0.0268
     36    H       24.7820    1.3500    2.3960 H       2  LIG2        0.0233
     37    H       23.6000    0.6810    3.5090 H       2  LIG2        0.0233
     38    H       25.3100    0.3730    3.7670 H       2  LIG2        0.0233
     39    H       26.4650    7.3070    3.5470 H       2  LIG2        0.0257
     40    H       27.0340    7.7630    5.1470 H       2  LIG2        0.0257
     41    H       25.3630    7.2960    4.9160 H       2  LIG2        0.0257
     42    H       27.1480    6.0430    6.7410 H       2  LIG2        0.2102
@<TRIPOS>BOND
     1    32    13    1
     2    36    15    1
     3    17     2    1
     4    18     4    1
     5    34    14    1
     6    33    13    1
     7    13    31    1
     8    13     3    1
     9    20     6    1
    10    15    37    1
    11    15    38    1
    12    15     8    1
    13     2     4    1
    14     2     3    1
    15     2     5    1
    16    27    11    1
    17    39    16    1
    18     4     3    1
    19     4     7    1
    20    25    10    1
    21     3    12    1
    22    14     8    1
    23    14    10    1
    24    14    35    1
    25     6    10    1
    26     6     5    1
    27     6     9    1
    28     8     5    1
    29     8    23    1
    30    10    24    1
    31     5    19    1
    32    11     7    1
    33    11     9    1
    34    11    26    1
    35    16     9    1
    36    16    41    1
    37    16    40    1
    38     7    22    1
    39     7    21    1
    40     9     1    1
    41    12    29    1
    42    12    28    1
    43    12    30    1
    44     1    42    1
@<TRIPOS>MOLECULE
11996452_4_run_24.pdb
 42 44 0 0 0
SMALL
GASTEIGER

@<TRIPOS>ATOM
      1    O       27.4350    3.8750    2.5330 O.3     2  LIG2       -0.3886
      2    C       28.0050    0.5350    4.7900 C.3     2  LIG2       -0.0289
      3    C       27.8700   -0.7060    3.9270 C.3     2  LIG2       -0.0284
      4    C       26.6710    0.1990    4.1110 C.3     2  LIG2       -0.0319
      5    C       28.7440    1.8200    4.3360 C.3     2  LIG2       -0.0294
      6    C       27.9700    3.0910    4.7820 C.3     2  LIG2       -0.0090
      7    C       26.1190    1.1430    3.0180 C.3     2  LIG2       -0.0468
      8    C       30.2130    1.9820    4.8270 C.3     2  LIG2       -0.0404
      9    C       26.8550    3.5820    3.7950 C.3     2  LIG2        0.0664
     10    C       29.0750    4.1150    5.1030 C.3     2  LIG2       -0.0471
     11    C       25.7210    2.5410    3.5470 C.3     2  LIG2       -0.0237
     12    C       28.5930   -0.8190    2.5650 C.3     2  LIG2       -0.0593
     13    C       27.8490   -2.0550    4.6700 C.3     2  LIG2       -0.0593
     14    C       30.2380    3.2860    5.6370 C.3     2  LIG2       -0.0498
     15    C       30.8150    0.7900    5.6000 C.3     2  LIG2       -0.0621
     16    C       26.2060    4.9000    4.2810 C.3     2  LIG2       -0.0358
     17    H       28.0300    0.4110    5.8740 H       2  LIG2        0.0312
     18    H       25.8610   -0.2090    4.7190 H       2  LIG2        0.0309
     19    H       28.8040    1.8380    3.2500 H       2  LIG2        0.0310
     20    H       27.4770    2.8770    5.7340 H       2  LIG2        0.0331
     21    H       26.7960    1.2520    2.1730 H       2  LIG2        0.0269
     22    H       25.2250    0.6740    2.6050 H       2  LIG2        0.0269
     23    H       30.8460    2.1370    3.9500 H       2  LIG2        0.0301
     24    H       29.3780    4.6590    4.2080 H       2  LIG2        0.0269
     25    H       28.7490    4.8510    5.8390 H       2  LIG2        0.0269
     26    H       24.9930    2.9690    2.8560 H       2  LIG2        0.0293
     27    H       25.1680    2.3980    4.4780 H       2  LIG2        0.0293
     28    H       28.0990   -1.5540    1.9290 H       2  LIG2        0.0235
     29    H       29.6240   -1.1460    2.7050 H       2  LIG2        0.0235
     30    H       28.6350    0.1060    1.9960 H       2  LIG2        0.0235
     31    H       27.3230   -2.8140    4.0910 H       2  LIG2        0.0235
     32    H       27.3500   -1.9820    5.6380 H       2  LIG2        0.0235
     33    H       28.8610   -2.4140    4.8550 H       2  LIG2        0.0235
     34    H       30.0990    3.0850    6.7010 H       2  LIG2        0.0268
     35    H       31.1850    3.8160    5.5280 H       2  LIG2        0.0268
     36    H       30.2810    0.5960    6.5310 H       2  LIG2        0.0233
     37    H       31.8570    0.9790    5.8560 H       2  LIG2        0.0233
     38    H       30.7870   -0.1220    5.0000 H       2  LIG2        0.0233
     39    H       25.7460    4.7750    5.2610 H       2  LIG2        0.0257
     40    H       25.4290    5.2450    3.5980 H       2  LIG2        0.0257
     41    H       26.9330    5.7090    4.3630 H       2  LIG2        0.0257
     42    H       28.0300    4.6210    2.6390 H       2  LIG2        0.2102
@<TRIPOS>BOND
     1    28    12    1
     2    30    12    1
     3    21     7    1
     4     1    42    1
     5     1     9    1
     6    12    29    1
     7    12     3    1
     8    22     7    1
     9    26    11    1
    10     7    11    1
    11     7     4    1
    12    19     5    1
    13    11     9    1
    14    11    27    1
    15    40    16    1
    16     9    16    1
    17     9     6    1
    18     3     4    1
    19     3    13    1
    20     3     2    1
    21    23     8    1
    22    31    13    1
    23     4    18    1
    24     4     2    1
    25    24    10    1
    26    16    41    1
    27    16    39    1
    28     5     6    1
    29     5     2    1
    30     5     8    1
    31    13    33    1
    32    13    32    1
    33     6    10    1
    34     6    20    1
    35     2    17    1
    36     8    15    1
    37     8    14    1
    38    38    15    1
    39    10    14    1
    40    10    25    1
    41    35    14    1
    42    15    37    1
    43    15    36    1
    44    14    34    1
@<TRIPOS>MOLECULE
11996452_4_run_24.pdb
 42 44 0 0 0
SMALL
GASTEIGER

@<TRIPOS>ATOM
      1    O       30.5990    1.5460    3.7500 O.3     2  LIG2       -0.3886
      2    C       26.8400    2.7060    4.7970 C.3     2  LIG2       -0.0289
      3    C       26.5400    4.0790    4.2240 C.3     2  LIG2       -0.0284
      4    C       27.6520    3.9290    5.2410 C.3     2  LIG2       -0.0319
      5    C       27.5790    1.5920    4.0110 C.3     2  LIG2       -0.0294
      6    C       28.5820    0.8400    4.9300 C.3     2  LIG2       -0.0090
      7    C       29.1570    4.0020    4.8980 C.3     2  LIG2       -0.0468
      8    C       26.6840    0.5140    3.3310 C.3     2  LIG2       -0.0404
      9    C       30.0080    1.4820    5.0390 C.3     2  LIG2        0.0664
     10    C       28.5420   -0.6140    4.4240 C.3     2  LIG2       -0.0471
     11    C       30.0110    2.9310    5.6160 C.3     2  LIG2       -0.0237
     12    C       26.8390    4.4160    2.7460 C.3     2  LIG2       -0.0593
     13    C       25.2390    4.7500    4.7050 C.3     2  LIG2       -0.0593
     14    C       27.1100   -0.8260    3.9450 C.3     2  LIG2       -0.0498
     15    C       25.1600    0.7440    3.4010 C.3     2  LIG2       -0.0621
     16    C       30.9580    0.6150    5.8990 C.3     2  LIG2       -0.0358
     17    H       26.1550    2.2950    5.5400 H       2  LIG2        0.0312
     18    H       27.4540    4.3610    6.2230 H       2  LIG2        0.0309
     19    H       28.1510    2.0390    3.2010 H       2  LIG2        0.0310
     20    H       28.1690    0.8150    5.9410 H       2  LIG2        0.0331
     21    H       29.3490    3.9640    3.8270 H       2  LIG2        0.0269
     22    H       29.5150    4.9830    5.2140 H       2  LIG2        0.0269
     23    H       26.9460    0.4800    2.2710 H       2  LIG2        0.0301
     24    H       29.2420   -0.7640    3.6010 H       2  LIG2        0.0269
     25    H       28.8020   -1.3270    5.2090 H       2  LIG2        0.0269
     26    H       31.0400    3.2920    5.6590 H       2  LIG2        0.0293
     27    H       29.6890    2.8930    6.6580 H       2  LIG2        0.0293
     28    H       26.9380    5.4930    2.6100 H       2  LIG2        0.0235
     29    H       26.0260    4.0770    2.1030 H       2  LIG2        0.0235
     30    H       27.7500    3.9690    2.3550 H       2  LIG2        0.0235
     31    H       25.3070    5.8350    4.6320 H       2  LIG2        0.0235
     32    H       25.0140    4.5080    5.7450 H       2  LIG2        0.0235
     33    H       24.3890    4.4240    4.1070 H       2  LIG2        0.0235
     34    H       26.4670   -1.0900    4.7880 H       2  LIG2        0.0268
     35    H       27.0500   -1.6430    3.2250 H       2  LIG2        0.0268
     36    H       24.7930    0.7330    4.4270 H       2  LIG2        0.0233
     37    H       24.6250   -0.0330    2.8560 H       2  LIG2        0.0233
     38    H       24.8850    1.7010    2.9550 H       2  LIG2        0.0233
     39    H       30.5730    0.4950    6.9120 H       2  LIG2        0.0257
     40    H       31.9520    1.0580    5.9790 H       2  LIG2        0.0257
     41    H       31.0920   -0.3830    5.4810 H       2  LIG2        0.0257
     42    H       31.5520    1.6000    3.8550 H       2  LIG2        0.2102
@<TRIPOS>BOND
     1    29    12    1
     2    23     8    1
     3    30    12    1
     4    28    12    1
     5    12     3    1
     6    37    15    1
     7    38    15    1
     8    19     5    1
     9    35    14    1
    10     8    15    1
    11     8    14    1
    12     8     5    1
    13    15    36    1
    14    24    10    1
    15     1    42    1
    16     1     9    1
    17    21     7    1
    18    14    10    1
    19    14    34    1
    20     5     2    1
    21     5     6    1
    22    33    13    1
    23     3    13    1
    24     3     2    1
    25     3     4    1
    26    10     6    1
    27    10    25    1
    28    31    13    1
    29    13    32    1
    30     2     4    1
    31     2    17    1
    32     7    22    1
    33     7     4    1
    34     7    11    1
    35     6     9    1
    36     6    20    1
    37     9    11    1
    38     9    16    1
    39     4    18    1
    40    41    16    1
    41    11    26    1
    42    11    27    1
    43    16    40    1
    44    16    39    1
@<TRIPOS>MOLECULE
11996452_4_run_21.pdb
 42 44 0 0 0
SMALL
GASTEIGER

@<TRIPOS>ATOM
      1    O       28.8920    0.5010    2.8170 O.3     2  LIG2       -0.3886
      2    C       27.2440    3.6300    4.8330 C.3     2  LIG2       -0.0289
      3    C       27.8970    4.9300    4.4020 C.3     2  LIG2       -0.0284
      4    C       28.7360    3.8750    5.0920 C.3     2  LIG2       -0.0319
      5    C       26.8570    2.4960    3.8490 C.3     2  LIG2       -0.0294
      6    C       27.1840    1.1020    4.4540 C.3     2  LIG2       -0.0090
      7    C       29.7830    2.9920    4.3750 C.3     2  LIG2       -0.0468
      8    C       25.3700    2.4580    3.3880 C.3     2  LIG2       -0.0404
      9    C       28.6460    0.5890    4.2120 C.3     2  LIG2        0.0664
     10    C       26.0610    0.1880    3.9300 C.3     2  LIG2       -0.0471
     11    C       29.7510    1.5100    4.8140 C.3     2  LIG2       -0.0237
     12    C       28.0990    5.2700    2.9070 C.3     2  LIG2       -0.0593
     13    C       27.5340    6.1810    5.2230 C.3     2  LIG2       -0.0593
     14    C       24.8340    1.0890    3.8290 C.3     2  LIG2       -0.0498
     15    C       24.4760    3.6250    3.8560 C.3     2  LIG2       -0.0621
     16    C       28.8470   -0.8400    4.7700 C.3     2  LIG2       -0.0358
     17    H       26.6010    3.6420    5.7150 H       2  LIG2        0.0312
     18    H       29.0590    4.1190    6.1050 H       2  LIG2        0.0309
     19    H       27.4350    2.5980    2.9330 H       2  LIG2        0.0310
     20    H       27.0440    1.1560    5.5360 H       2  LIG2        0.0331
     21    H       29.7150    3.0530    3.2910 H       2  LIG2        0.0269
     22    H       30.7670    3.3930    4.6200 H       2  LIG2        0.0269
     23    H       25.3550    2.4710    2.2960 H       2  LIG2        0.0301
     24    H       26.3120   -0.2200    2.9490 H       2  LIG2        0.0269
     25    H       25.8750   -0.6550    4.5970 H       2  LIG2        0.0269
     26    H       30.7290    1.0730    4.6020 H       2  LIG2        0.0293
     27    H       29.6700    1.4880    5.9030 H       2  LIG2        0.0293
     28    H       28.8960    6.0040    2.7850 H       2  LIG2        0.0235
     29    H       27.1900    5.6990    2.4860 H       2  LIG2        0.0235
     30    H       28.3600    4.4210    2.2810 H       2  LIG2        0.0235
     31    H       28.3250    6.9290    5.1690 H       2  LIG2        0.0235
     32    H       27.3780    5.9490    6.2780 H       2  LIG2        0.0235
     33    H       26.6150    6.6360    4.8540 H       2  LIG2        0.0235
     34    H       24.3390    1.1590    4.8000 H       2  LIG2        0.0268
     35    H       24.1060    0.6880    3.1230 H       2  LIG2        0.0268
     36    H       24.3800    3.6560    4.9410 H       2  LIG2        0.0233
     37    H       23.4710    3.5350    3.4430 H       2  LIG2        0.0233
     38    H       24.8780    4.5850    3.5260 H       2  LIG2        0.0233
     39    H       28.6600   -0.8730    5.8440 H       2  LIG2        0.0257
     40    H       29.8630   -1.2010    4.6050 H       2  LIG2        0.0257
     41    H       28.1770   -1.5610    4.3000 H       2  LIG2        0.0257
     42    H       29.7960    0.2030    2.6860 H       2  LIG2        0.2102
@<TRIPOS>BOND
     1    30    12    1
     2    23     8    1
     3    29    12    1
     4    42     1    1
     5    28    12    1
     6     1     9    1
     7    12     3    1
     8    19     5    1
     9    24    10    1
    10    35    14    1
    11    21     7    1
    12     8    14    1
    13     8     5    1
    14     8    15    1
    15    37    15    1
    16    38    15    1
    17    14    10    1
    18    14    34    1
    19     5     6    1
    20     5     2    1
    21    15    36    1
    22    10     6    1
    23    10    25    1
    24     9     6    1
    25     9    16    1
    26     9    11    1
    27    41    16    1
    28     7    22    1
    29     7    11    1
    30     7     4    1
    31     3     2    1
    32     3     4    1
    33     3    13    1
    34     6    20    1
    35    26    11    1
    36    40    16    1
    37    16    39    1
    38    11    27    1
    39     2     4    1
    40     2    17    1
    41    33    13    1
    42     4    18    1
    43    31    13    1
    44    13    32    1
@<TRIPOS>MOLECULE
11996452_4_run_13.pdb
 42 44 0 0 0
SMALL
GASTEIGER

@<TRIPOS>ATOM
      1    O       26.5300   -0.4530    5.4090 O.3     2  LIG2       -0.3886
      2    C       28.3100    2.9000    3.9370 C.3     2  LIG2       -0.0289
      3    C       27.3830    4.0910    4.0900 C.3     2  LIG2       -0.0284
      4    C       26.9660    2.9400    3.1990 C.3     2  LIG2       -0.0319
      5    C       28.5030    1.8180    5.0310 C.3     2  LIG2       -0.0294
      6    C       28.5820    0.4000    4.3980 C.3     2  LIG2       -0.0090
      7    C       25.8710    1.9120    3.5650 C.3     2  LIG2       -0.0468
      8    C       29.7480    1.9790    5.9520 C.3     2  LIG2       -0.0404
      9    C       27.2050   -0.3130    4.1680 C.3     2  LIG2        0.0664
     10    C       29.5840   -0.3570    5.2900 C.3     2  LIG2       -0.0471
     11    C       26.2440    0.4540    3.2090 C.3     2  LIG2       -0.0237
     12    C       26.6590    4.3810    5.4250 C.3     2  LIG2       -0.0593
     13    C       27.8220    5.3920    3.3910 C.3     2  LIG2       -0.0593
     14    C       30.5780    0.7030    5.7540 C.3     2  LIG2       -0.0498
     15    C       30.5800    3.2640    5.7620 C.3     2  LIG2       -0.0621
     16    C       27.3920   -1.7480    3.6230 C.3     2  LIG2       -0.0358
     17    H       29.1980    3.0120    3.3130 H       2  LIG2        0.0312
     18    H       26.9620    3.1500    2.1280 H       2  LIG2        0.0309
     19    H       27.6490    1.8270    5.7050 H       2  LIG2        0.0310
     20    H       29.0600    0.4870    3.4200 H       2  LIG2        0.0331
     21    H       25.5710    1.9670    4.6090 H       2  LIG2        0.0269
     22    H       24.9760    2.1760    3.0000 H       2  LIG2        0.0269
     23    H       29.4030    1.9810    6.9870 H       2  LIG2        0.0301
     24    H       29.0850   -0.8080    6.1480 H       2  LIG2        0.0269
     25    H       30.0910   -1.1570    4.7470 H       2  LIG2        0.0269
     26    H       25.3190   -0.1160    3.1050 H       2  LIG2        0.0293
     27    H       26.6790    0.4580    2.2070 H       2  LIG2        0.0293
     28    H       25.7750    4.9960    5.2560 H       2  LIG2        0.0235
     29    H       27.3140    4.9260    6.1050 H       2  LIG2        0.0235
     30    H       26.3250    3.4960    5.9590 H       2  LIG2        0.0235
     31    H       26.9640    6.0230    3.1600 H       2  LIG2        0.0235
     32    H       28.3440    5.1970    2.4520 H       2  LIG2        0.0235
     33    H       28.5000    5.9650    4.0240 H       2  LIG2        0.0235
     34    H       31.3490    0.8530    4.9960 H       2  LIG2        0.0268
     35    H       31.0830    0.3970    6.6720 H       2  LIG2        0.0268
     36    H       31.0210    3.3230    4.7670 H       2  LIG2        0.0233
     37    H       31.3970    3.3090    6.4820 H       2  LIG2        0.0233
     38    H       29.9670    4.1550    5.9110 H       2  LIG2        0.0233
     39    H       27.9230   -1.7410    2.6690 H       2  LIG2        0.0257
     40    H       26.4360   -2.2480    3.4590 H       2  LIG2        0.0257
     41    H       27.9620   -2.3760    4.3080 H       2  LIG2        0.0257
     42    H       26.2810    0.4210    5.7200 H       2  LIG2        0.2102
@<TRIPOS>BOND
     1    18     4    1
     2    27    11    1
     3    32    13    1
     4    39    16    1
     5    22     7    1
     6    26    11    1
     7    31    13    1
     8     4     7    1
     9     4     2    1
    10     4     3    1
    11    11     7    1
    12    11     9    1
    13    17     2    1
    14    13    33    1
    15    13     3    1
    16    20     6    1
    17    40    16    1
    18     7    21    1
    19    16     9    1
    20    16    41    1
    21     2     3    1
    22     2     5    1
    23     3    12    1
    24     9     6    1
    25     9     1    1
    26     6     5    1
    27     6    10    1
    28    25    10    1
    29    36    15    1
    30    34    14    1
    31     5    19    1
    32     5     8    1
    33    28    12    1
    34    10    14    1
    35    10    24    1
    36     1    42    1
    37    12    30    1
    38    12    29    1
    39    14     8    1
    40    14    35    1
    41    15    38    1
    42    15     8    1
    43    15    37    1
    44     8    23    1
@<TRIPOS>MOLECULE
11996452_4_run_10.pdb
 42 44 0 0 0
SMALL
GASTEIGER

@<TRIPOS>ATOM
      1    O       26.5640    4.2050    5.7420 O.3     2  LIG2       -0.3886
      2    C       28.7500    1.1850    4.1070 C.3     2  LIG2       -0.0289
      3    C       29.8160    0.7240    5.0840 C.3     2  LIG2       -0.0284
      4    C       29.8660    2.1400    4.5490 C.3     2  LIG2       -0.0319
      5    C       27.2970    1.5280    4.5220 C.3     2  LIG2       -0.0294
      6    C       26.7890    2.7880    3.7670 C.3     2  LIG2       -0.0090
      7    C       29.5040    3.3940    5.3770 C.3     2  LIG2       -0.0468
      8    C       26.2340    0.4090    4.3120 C.3     2  LIG2       -0.0404
      9    C       27.1310    4.1610    4.4410 C.3     2  LIG2        0.0664
     10    C       25.2910    2.5130    3.5360 C.3     2  LIG2       -0.0471
     11    C       28.6590    4.4290    4.5980 C.3     2  LIG2       -0.0237
     12    C       29.4770    0.4340    6.5640 C.3     2  LIG2       -0.0593
     13    C       30.8610   -0.2660    4.5380 C.3     2  LIG2       -0.0593
     14    C       25.1900    1.0020    3.3560 C.3     2  LIG2       -0.0498
     15    C       26.7640   -0.9600    3.8380 C.3     2  LIG2       -0.0621
     16    C       26.5070    5.3460    3.6660 C.3     2  LIG2       -0.0358
     17    H       28.8080    0.8320    3.0760 H       2  LIG2        0.0312
     18    H       30.6800    2.3530    3.8540 H       2  LIG2        0.0309
     19    H       27.2670    1.7510    5.5860 H       2  LIG2        0.0310
     20    H       27.2450    2.8010    2.7740 H       2  LIG2        0.0331
     21    H       29.0100    3.1530    6.3160 H       2  LIG2        0.0269
     22    H       30.4400    3.8740    5.6650 H       2  LIG2        0.0269
     23    H       25.7340    0.2360    5.2670 H       2  LIG2        0.0301
     24    H       24.6960    2.8320    4.3920 H       2  LIG2        0.0269
     25    H       24.9090    3.0380    2.6580 H       2  LIG2        0.0269
     26    H       28.8000    5.4040    5.0690 H       2  LIG2        0.0293
     27    H       29.0990    4.5380    3.6050 H       2  LIG2        0.0293
     28    H       30.3720    0.5020    7.1840 H       2  LIG2        0.0235
     29    H       29.0780   -0.5750    6.6750 H       2  LIG2        0.0235
     30    H       28.7450    1.1070    7.0020 H       2  LIG2        0.0235
     31    H       31.7940   -0.2020    5.0990 H       2  LIG2        0.0235
     32    H       31.0990   -0.0760    3.4900 H       2  LIG2        0.0235
     33    H       30.4980   -1.2920    4.6050 H       2  LIG2        0.0235
     34    H       25.4110    0.7310    2.3220 H       2  LIG2        0.0268
     35    H       24.1840    0.6430    3.5770 H       2  LIG2        0.0268
     36    H       27.2320   -0.8990    2.8550 H       2  LIG2        0.0233
     37    H       25.9560   -1.6880    3.7690 H       2  LIG2        0.0233
     38    H       27.5020   -1.3600    4.5370 H       2  LIG2        0.0233
     39    H       26.8740    5.3830    2.6400 H       2  LIG2        0.0257
     40    H       26.7430    6.3050    4.1310 H       2  LIG2        0.0257
     41    H       25.4190    5.2790    3.6210 H       2  LIG2        0.0257
     42    H       26.8000    5.0430    6.1470 H       2  LIG2        0.2102
@<TRIPOS>BOND
     1    34    14    1
     2    39    16    1
     3    25    10    1
     4    20     6    1
     5    36    15    1
     6    17     2    1
     7    14    10    1
     8    14    35    1
     9    14     8    1
    10    32    13    1
    11    10     6    1
    12    10    24    1
    13    27    11    1
    14    41    16    1
    15    16    40    1
    16    16     9    1
    17     6     9    1
    18     6     5    1
    19    37    15    1
    20    15     8    1
    21    15    38    1
    22    18     4    1
    23     2     5    1
    24     2     4    1
    25     2     3    1
    26     8     5    1
    27     8    23    1
    28     9    11    1
    29     9     1    1
    30     5    19    1
    31    13    33    1
    32    13     3    1
    33    13    31    1
    34     4     3    1
    35     4     7    1
    36    11    26    1
    37    11     7    1
    38     3    12    1
    39     7    22    1
    40     7    21    1
    41     1    42    1
    42    12    29    1
    43    12    30    1
    44    12    28    1
@<TRIPOS>MOLECULE
11996452_4_run_19.pdb
 42 44 0 0 0
SMALL
GASTEIGER

@<TRIPOS>ATOM
      1    O       27.6270    0.3880    5.0580 O.3     2  LIG2       -0.3886
      2    C       25.6080    3.6980    3.8160 C.3     2  LIG2       -0.0289
      3    C       24.1790    3.6580    4.3240 C.3     2  LIG2       -0.0284
      4    C       24.6500    2.5900    3.3600 C.3     2  LIG2       -0.0319
      5    C       26.8340    3.2890    4.6720 C.3     2  LIG2       -0.0294
      6    C       27.8560    2.4810    3.8230 C.3     2  LIG2       -0.0090
      7    C       24.9420    1.1260    3.7620 C.3     2  LIG2       -0.0468
      8    C       27.6190    4.4470    5.3540 C.3     2  LIG2       -0.0404
      9    C       27.5990    0.9360    3.7490 C.3     2  LIG2        0.0664
     10    C       29.2280    2.9030    4.3800 C.3     2  LIG2       -0.0471
     11    C       26.2260    0.5500    3.1200 C.3     2  LIG2       -0.0237
     12    C       23.8590    3.3280    5.8000 C.3     2  LIG2       -0.0593
     13    C       23.2250    4.7310    3.7650 C.3     2  LIG2       -0.0593
     14    C       29.0510    4.3570    4.8080 C.3     2  LIG2       -0.0498
     15    C       27.0170    5.8610    5.2130 C.3     2  LIG2       -0.0621
     16    C       28.7160    0.2110    2.9620 C.3     2  LIG2       -0.0358
     17    H       25.8670    4.4410    3.0600 H       2  LIG2        0.0312
     18    H       24.2280    2.6410    2.3550 H       2  LIG2        0.0309
     19    H       26.5080    2.6470    5.4870 H       2  LIG2        0.0310
     20    H       27.8230    2.8560    2.7970 H       2  LIG2        0.0331
     21    H       24.9780    0.9820    4.8400 H       2  LIG2        0.0269
     22    H       24.0990    0.5220    3.4240 H       2  LIG2        0.0269
     23    H       27.6700    4.2350    6.4240 H       2  LIG2        0.0301
     24    H       29.5110    2.2890    5.2360 H       2  LIG2        0.0269
     25    H       30.0190    2.8090    3.6340 H       2  LIG2        0.0269
     26    H       26.1380   -0.5390    3.1050 H       2  LIG2        0.0293
     27    H       26.2290    0.8390    2.0670 H       2  LIG2        0.0293
     28    H       22.8360    2.9640    5.8990 H       2  LIG2        0.0235
     29    H       23.9520    4.2200    6.4210 H       2  LIG2        0.0235
     30    H       24.5020    2.5720    6.2440 H       2  LIG2        0.0235
     31    H       22.1890    4.3930    3.8010 H       2  LIG2        0.0235
     32    H       23.4500    4.9790    2.7260 H       2  LIG2        0.0235
     33    H       23.2980    5.6540    4.3400 H       2  LIG2        0.0235
     34    H       29.1830    5.0190    3.9500 H       2  LIG2        0.0268
     35    H       29.7920    4.6430    5.5550 H       2  LIG2        0.0268
     36    H       26.9820    6.1880    4.1730 H       2  LIG2        0.0233
     37    H       27.6090    6.5920    5.7640 H       2  LIG2        0.0233
     38    H       26.0020    5.8980    5.6120 H       2  LIG2        0.0233
     39    H       28.7820    0.5840    1.9380 H       2  LIG2        0.0257
     40    H       28.5410   -0.8640    2.9060 H       2  LIG2        0.0257
     41    H       29.6960    0.3470    3.4210 H       2  LIG2        0.0257
     42    H       27.4430   -0.5520    4.9970 H       2  LIG2        0.2102
@<TRIPOS>BOND
     1    39    16    1
     2    27    11    1
     3    18     4    1
     4    32    13    1
     5    20     6    1
     6    40    16    1
     7    16    41    1
     8    16     9    1
     9    17     2    1
    10    26    11    1
    11    11     9    1
    12    11     7    1
    13     4     7    1
    14     4     2    1
    15     4     3    1
    16    22     7    1
    17    25    10    1
    18     9     6    1
    19     9     1    1
    20     7    21    1
    21    13    31    1
    22    13     3    1
    23    13    33    1
    24     2     3    1
    25     2     5    1
    26     6    10    1
    27     6     5    1
    28    34    14    1
    29    36    15    1
    30     3    12    1
    31    10    14    1
    32    10    24    1
    33     5     8    1
    34     5    19    1
    35    14     8    1
    36    14    35    1
    37    42     1    1
    38    15     8    1
    39    15    38    1
    40    15    37    1
    41     8    23    1
    42    12    28    1
    43    12    30    1
    44    12    29    1
@<TRIPOS>MOLECULE
11996452_4_run_6.pdb
 42 44 0 0 0
SMALL
GASTEIGER

@<TRIPOS>ATOM
      1    O       25.8750    1.4240    4.7100 O.3     2  LIG2       -0.3886
      2    C       29.9150    1.9110    4.5850 C.3     2  LIG2       -0.0289
      3    C       30.4490    2.1940    5.9770 C.3     2  LIG2       -0.0284
      4    C       29.4960    3.1810    5.3370 C.3     2  LIG2       -0.0319
      5    C       28.8210    0.8540    4.2840 C.3     2  LIG2       -0.0294
      6    C       27.8130    1.3860    3.2270 C.3     2  LIG2       -0.0090
      7    C       28.0180    3.3580    5.7570 C.3     2  LIG2       -0.0468
      8    C       29.3200   -0.5340    3.7840 C.3     2  LIG2       -0.0404
      9    C       26.6160    2.2210    3.7990 C.3     2  LIG2        0.0664
     10    C       27.4270    0.1380    2.4110 C.3     2  LIG2       -0.0471
     11    C       27.0470    3.5100    4.5630 C.3     2  LIG2       -0.0237
     12    C       30.0250    1.3350    7.1900 C.3     2  LIG2       -0.0593
     13    C       31.9290    2.6110    6.0690 C.3     2  LIG2       -0.0593
     14    C       28.6800   -0.7320    2.4030 C.3     2  LIG2       -0.0498
     15    C       30.8480   -0.7490    3.7670 C.3     2  LIG2       -0.0621
     16    C       25.6230    2.6260    2.6840 C.3     2  LIG2       -0.0358
     17    H       30.5820    2.0620    3.7350 H       2  LIG2        0.0312
     18    H       29.9340    4.1350    5.0400 H       2  LIG2        0.0309
     19    H       28.2610    0.6440    5.1920 H       2  LIG2        0.0310
     20    H       28.3520    2.0380    2.5360 H       2  LIG2        0.0331
     21    H       27.6680    2.5650    6.4140 H       2  LIG2        0.0269
     22    H       27.9580    4.2680    6.3550 H       2  LIG2        0.0269
     23    H       28.9040   -1.2980    4.4430 H       2  LIG2        0.0301
     24    H       26.5980   -0.3960    2.8770 H       2  LIG2        0.0269
     25    H       27.1210    0.3930    1.3940 H       2  LIG2        0.0269
     26    H       26.1530    4.0260    4.9180 H       2  LIG2        0.0293
     27    H       27.5010    4.2030    3.8520 H       2  LIG2        0.0293
     28    H       30.1700    1.8850    8.1200 H       2  LIG2        0.0235
     29    H       30.6290    0.4290    7.2480 H       2  LIG2        0.0235
     30    H       28.9860    1.0150    7.1770 H       2  LIG2        0.0235
     31    H       32.1140    3.2060    6.9630 H       2  LIG2        0.0235
     32    H       32.2400    3.2090    5.2110 H       2  LIG2        0.0235
     33    H       32.5780    1.7370    6.1050 H       2  LIG2        0.0235
     34    H       29.3570   -0.4090    1.6100 H       2  LIG2        0.0268
     35    H       28.4340   -1.7780    2.2130 H       2  LIG2        0.0268
     36    H       31.3490   -0.0640    3.0830 H       2  LIG2        0.0233
     37    H       31.0940   -1.7630    3.4510 H       2  LIG2        0.0233
     38    H       31.2760   -0.6060    4.7610 H       2  LIG2        0.0233
     39    H       26.1130    3.2330    1.9210 H       2  LIG2        0.0257
     40    H       24.7880    3.2090    3.0760 H       2  LIG2        0.0257
     41    H       25.1920    1.7590    2.1830 H       2  LIG2        0.0257
     42    H       25.1670    1.9610    5.0760 H       2  LIG2        0.2102
@<TRIPOS>BOND
     1    25    10    1
     2    34    14    1
     3    39    16    1
     4    41    16    1
     5    35    14    1
     6    14    10    1
     7    14     8    1
     8    10    24    1
     9    10     6    1
    10    20     6    1
    11    16    40    1
    12    16     9    1
    13    36    15    1
    14     6     9    1
    15     6     5    1
    16    37    15    1
    17    17     2    1
    18    15     8    1
    19    15    38    1
    20     8     5    1
    21     8    23    1
    22     9    11    1
    23     9     1    1
    24    27    11    1
    25     5     2    1
    26     5    19    1
    27    11    26    1
    28    11     7    1
    29     2     4    1
    30     2     3    1
    31     1    42    1
    32    18     4    1
    33    32    13    1
    34     4     7    1
    35     4     3    1
    36     7    22    1
    37     7    21    1
    38     3    13    1
    39     3    12    1
    40    13    33    1
    41    13    31    1
    42    30    12    1
    43    12    29    1
    44    12    28    1
@<TRIPOS>MOLECULE
11996452_4_run_8.pdb
 42 44 0 0 0
SMALL
GASTEIGER

@<TRIPOS>ATOM
      1    O       26.5410    1.1430    1.8950 O.3     2  LIG2       -0.3886
      2    C       28.2500    2.1830    5.4410 C.3     2  LIG2       -0.0289
      3    C       29.5990    1.5040    5.5880 C.3     2  LIG2       -0.0284
      4    C       28.3490    0.6540    5.5120 C.3     2  LIG2       -0.0319
      5    C       27.7480    2.8150    4.1180 C.3     2  LIG2       -0.0294
      6    C       26.2390    2.5090    3.8960 C.3     2  LIG2       -0.0090
      7    C       27.9460   -0.1880    4.2800 C.3     2  LIG2       -0.0468
      8    C       27.9280    4.3550    3.9750 C.3     2  LIG2       -0.0404
      9    C       25.9270    1.1520    3.1750 C.3     2  LIG2        0.0664
     10    C       25.6940    3.7730    3.2060 C.3     2  LIG2       -0.0471
     11    C       26.4390   -0.1070    3.9380 C.3     2  LIG2       -0.0237
     12    C       30.6350    1.5190    4.4410 C.3     2  LIG2       -0.0593
     13    C       30.2780    1.6260    6.9660 C.3     2  LIG2       -0.0593
     14    C       26.5150    4.9220    3.7810 C.3     2  LIG2       -0.0498
     15    C       28.7030    5.0630    5.1050 C.3     2  LIG2       -0.0621
     16    C       24.4110    0.9820    2.9190 C.3     2  LIG2       -0.0358
     17    H       27.8190    2.6710    6.3170 H       2  LIG2        0.0312
     18    H       28.0630    0.1520    6.4380 H       2  LIG2        0.0309
     19    H       28.2940    2.3860    3.2810 H       2  LIG2        0.0310
     20    H       25.7500    2.4680    4.8720 H       2  LIG2        0.0331
     21    H       28.5330    0.0480    3.3960 H       2  LIG2        0.0269
     22    H       28.1820   -1.2290    4.5060 H       2  LIG2        0.0269
     23    H       28.4800    4.5450    3.0520 H       2  LIG2        0.0301
     24    H       25.8260    3.7180    2.1250 H       2  LIG2        0.0269
     25    H       24.6300    3.9170    3.3990 H       2  LIG2        0.0269
     26    H       26.1730   -0.9990    3.3670 H       2  LIG2        0.0293
     27    H       25.8810   -0.2010    4.8720 H       2  LIG2        0.0293
     28    H       31.3410    0.6950    4.5510 H       2  LIG2        0.0235
     29    H       31.2090    2.4460    4.4550 H       2  LIG2        0.0235
     30    H       30.2090    1.4330    3.4450 H       2  LIG2        0.0235
     31    H       30.9620    0.7960    7.1410 H       2  LIG2        0.0235
     32    H       29.5540    1.6270    7.7820 H       2  LIG2        0.0235
     33    H       30.8480    2.5520    7.0390 H       2  LIG2        0.0235
     34    H       26.0920    5.2460    4.7340 H       2  LIG2        0.0268
     35    H       26.5090    5.7860    3.1140 H       2  LIG2        0.0268
     36    H       28.1930    4.9800    6.0650 H       2  LIG2        0.0233
     37    H       28.8200    6.1250    4.8900 H       2  LIG2        0.0233
     38    H       29.7050    4.6430    5.2190 H       2  LIG2        0.0233
     39    H       23.8490    0.9940    3.8540 H       2  LIG2        0.0257
     40    H       24.1870    0.0380    2.4180 H       2  LIG2        0.0257
     41    H       24.0100    1.7750    2.2870 H       2  LIG2        0.0257
     42    H       26.5990    0.2340    1.5930 H       2  LIG2        0.2102
@<TRIPOS>BOND
     1    42     1    1
     2     1     9    1
     3    24    10    1
     4    41    16    1
     5    40    16    1
     6    16     9    1
     7    16    39    1
     8    23     8    1
     9    35    14    1
    10     9     6    1
    11     9    11    1
    12    10    25    1
    13    10    14    1
    14    10     6    1
    15    19     5    1
    16    26    11    1
    17    21     7    1
    18    30    12    1
    19    14     8    1
    20    14    34    1
    21     6     5    1
    22     6    20    1
    23    11     7    1
    24    11    27    1
    25     8     5    1
    26     8    15    1
    27     5     2    1
    28     7    22    1
    29     7     4    1
    30    12    29    1
    31    12    28    1
    32    12     3    1
    33    37    15    1
    34    15    38    1
    35    15    36    1
    36     2     4    1
    37     2     3    1
    38     2    17    1
    39     4     3    1
    40     4    18    1
    41     3    13    1
    42    13    33    1
    43    13    31    1
    44    13    32    1
@<TRIPOS>MOLECULE
11996452_4_run_15.pdb
 42 44 0 0 0
SMALL
GASTEIGER

@<TRIPOS>ATOM
      1    O       28.2830    2.5090    2.8480 O.3     2  LIG2       -0.3886
      2    C       25.7910    5.0250    4.8560 C.3     2  LIG2       -0.0289
      3    C       25.8550    6.4150    4.2500 C.3     2  LIG2       -0.0284
      4    C       27.0960    5.8290    4.8870 C.3     2  LIG2       -0.0319
      5    C       25.7620    3.7230    4.0140 C.3     2  LIG2       -0.0294
      6    C       26.6530    2.6270    4.6620 C.3     2  LIG2       -0.0090
      7    C       28.3200    5.3160    4.0930 C.3     2  LIG2       -0.0468
      8    C       24.3610    3.0890    3.7690 C.3     2  LIG2       -0.0404
      9    C       28.1670    2.6620    4.2550 C.3     2  LIG2        0.0664
     10    C       25.9120    1.3100    4.3630 C.3     2  LIG2       -0.0471
     11    C       28.8970    3.9860    4.6330 C.3     2  LIG2       -0.0237
     12    C       25.7580    6.6300    2.7220 C.3     2  LIG2       -0.0593
     13    C       25.1320    7.5320    5.0250 C.3     2  LIG2       -0.0593
     14    C       24.4320    1.6800    4.3730 C.3     2  LIG2       -0.0498
     15    C       23.1460    3.8920    4.2750 C.3     2  LIG2       -0.0621
     16    C       28.9500    1.4800    4.8760 C.3     2  LIG2       -0.0358
     17    H       25.2860    4.9030    5.8150 H       2  LIG2        0.0312
     18    H       27.4070    6.2900    5.8260 H       2  LIG2        0.0309
     19    H       26.1610    3.9240    3.0230 H       2  LIG2        0.0310
     20    H       26.6150    2.7490    5.7470 H       2  LIG2        0.0331
     21    H       28.1230    5.2220    3.0280 H       2  LIG2        0.0269
     22    H       29.0990    6.0750    4.1710 H       2  LIG2        0.0269
     23    H       24.2300    2.9700    2.6910 H       2  LIG2        0.0301
     24    H       26.1960    0.9120    3.3880 H       2  LIG2        0.0269
     25    H       26.1280    0.5410    5.1060 H       2  LIG2        0.0269
     26    H       29.9400    3.9170    4.3180 H       2  LIG2        0.0293
     27    H       28.9430    4.0620    5.7220 H       2  LIG2        0.0293
     28    H       26.2000    7.5860    2.4400 H       2  LIG2        0.0235
     29    H       24.7150    6.6450    2.4020 H       2  LIG2        0.0235
     30    H       26.2550    5.8700    2.1250 H       2  LIG2        0.0235
     31    H       25.5710    8.5070    4.8110 H       2  LIG2        0.0235
     32    H       25.1850    7.3830    6.1050 H       2  LIG2        0.0235
     33    H       24.0760    7.5720    4.7580 H       2  LIG2        0.0235
     34    H       24.0510    1.6750    5.3960 H       2  LIG2        0.0268
     35    H       23.8410    0.9610    3.8040 H       2  LIG2        0.0268
     36    H       23.1570    4.0110    5.3590 H       2  LIG2        0.0233
     37    H       22.2130    3.3930    4.0130 H       2  LIG2        0.0233
     38    H       23.1180    4.8880    3.8280 H       2  LIG2        0.0233
     39    H       28.9010    1.5050    5.9660 H       2  LIG2        0.0257
     40    H       30.0040    1.5010    4.5970 H       2  LIG2        0.0257
     41    H       28.5580    0.5150    4.5550 H       2  LIG2        0.0257
     42    H       29.2150    2.5080    2.6190 H       2  LIG2        0.2102
@<TRIPOS>BOND
     1    30    12    1
     2    29    12    1
     3    28    12    1
     4    42     1    1
     5    23     8    1
     6    12     3    1
     7     1     9    1
     8    19     5    1
     9    21     7    1
    10    24    10    1
    11     8     5    1
    12     8    15    1
    13     8    14    1
    14    35    14    1
    15    38    15    1
    16    37    15    1
    17     5     6    1
    18     5     2    1
    19     7    22    1
    20     7    11    1
    21     7     4    1
    22     3     2    1
    23     3     4    1
    24     3    13    1
    25     9    11    1
    26     9     6    1
    27     9    16    1
    28    15    36    1
    29    26    11    1
    30    10    14    1
    31    10     6    1
    32    10    25    1
    33    14    34    1
    34    41    16    1
    35    40    16    1
    36    11    27    1
    37     6    20    1
    38    33    13    1
    39    31    13    1
    40     2     4    1
    41     2    17    1
    42    16    39    1
    43     4    18    1
    44    13    32    1
