@<TRIPOS>MOLECULE
11996452_8_run_10.pdb
 42 44 0 0 0
SMALL
GASTEIGER

@<TRIPOS>ATOM
      1    O       22.9160    3.6590    3.4590 O.3     2  LIG2       -0.3886
      2    C       27.0380    3.1840    5.1770 C.3     2  LIG2       -0.0289
      3    C       28.2090    2.2780    4.8130 C.3     2  LIG2       -0.0284
      4    C       26.7990    1.7790    4.6050 C.3     2  LIG2       -0.0319
      5    C       26.6260    4.4270    4.3360 C.3     2  LIG2       -0.0294
      6    C       25.1630    4.5150    3.7800 C.3     2  LIG2       -0.0090
      7    C       26.1040    1.6710    3.2370 C.3     2  LIG2       -0.0468
      8    C       26.8850    5.7510    5.0930 C.3     2  LIG2       -0.0404
      9    C       24.1750    3.3150    4.0190 C.3     2  LIG2        0.0664
     10    C       24.6470    5.9080    4.2080 C.3     2  LIG2       -0.0471
     11    C       24.5980    2.0030    3.2810 C.3     2  LIG2       -0.0237
     12    C       29.1320    2.5750    3.6090 C.3     2  LIG2       -0.0593
     13    C       28.9930    1.6730    5.9920 C.3     2  LIG2       -0.0593
     14    C       25.8920    6.7470    4.4900 C.3     2  LIG2       -0.0498
     15    C       28.3490    6.2180    5.0320 C.3     2  LIG2       -0.0621
     16    C       23.8270    3.0300    5.5060 C.3     2  LIG2       -0.0358
     17    H       26.8200    3.3180    6.2370 H       2  LIG2        0.0312
     18    H       26.4620    0.9930    5.2830 H       2  LIG2        0.0309
     19    H       27.2540    4.4610    3.4480 H       2  LIG2        0.0310
     20    H       25.2570    4.5780    2.6930 H       2  LIG2        0.0331
     21    H       26.5710    2.3220    2.5010 H       2  LIG2        0.0269
     22    H       26.2360    0.6590    2.8520 H       2  LIG2        0.0269
     23    H       26.6120    5.6280    6.1440 H       2  LIG2        0.0301
     24    H       24.0350    6.3700    3.4340 H       2  LIG2        0.0269
     25    H       24.0320    5.8510    5.1050 H       2  LIG2        0.0269
     26    H       24.2780    2.0450    2.2370 H       2  LIG2        0.0293
     27    H       24.0680    1.1500    3.7090 H       2  LIG2        0.0293
     28    H       29.6490    1.6700    3.2890 H       2  LIG2        0.0235
     29    H       29.8920    3.3080    3.8800 H       2  LIG2        0.0235
     30    H       28.6210    2.9620    2.7310 H       2  LIG2        0.0235
     31    H       29.4810    0.7410    5.7020 H       2  LIG2        0.0235
     32    H       28.3490    1.4500    6.8440 H       2  LIG2        0.0235
     33    H       29.7650    2.3600    6.3410 H       2  LIG2        0.0235
     34    H       25.6740    7.5720    5.1680 H       2  LIG2        0.0268
     35    H       26.2830    7.1740    3.5650 H       2  LIG2        0.0268
     36    H       28.6790    6.3770    4.0050 H       2  LIG2        0.0233
     37    H       29.0140    5.4800    5.4820 H       2  LIG2        0.0233
     38    H       28.4850    7.1540    5.5730 H       2  LIG2        0.0233
     39    H       24.6650    2.6470    6.0800 H       2  LIG2        0.0257
     40    H       23.0400    2.2790    5.5940 H       2  LIG2        0.0257
     41    H       23.4650    3.9180    6.0260 H       2  LIG2        0.0257
     42    H       22.3400    2.8930    3.5200 H       2  LIG2        0.2102
@<TRIPOS>BOND
     1    26    11    1
     2    21     7    1
     3    20     6    1
     4    30    12    1
     5    22     7    1
     6     7    11    1
     7     7     4    1
     8    11    27    1
     9    11     9    1
    10    28    12    1
    11    24    10    1
    12    19     5    1
    13     1    42    1
    14     1     9    1
    15    35    14    1
    16    12    29    1
    17    12     3    1
    18     6     9    1
    19     6    10    1
    20     6     5    1
    21    36    15    1
    22     9    16    1
    23    10    14    1
    24    10    25    1
    25     5     8    1
    26     5     2    1
    27    14     8    1
    28    14    34    1
    29     4     3    1
    30     4     2    1
    31     4    18    1
    32     3     2    1
    33     3    13    1
    34    15     8    1
    35    15    37    1
    36    15    38    1
    37     8    23    1
    38     2    17    1
    39    16    40    1
    40    16    41    1
    41    16    39    1
    42    31    13    1
    43    13    33    1
    44    13    32    1
@<TRIPOS>MOLECULE
11996452_8_run_17.pdb
 42 44 0 0 0
SMALL
GASTEIGER

@<TRIPOS>ATOM
      1    O       27.2920   -1.3110    3.5130 O.3     2  LIG2       -0.3886
      2    C       28.4540    3.0140    3.8430 C.3     2  LIG2       -0.0289
      3    C       27.6520    4.2770    4.1380 C.3     2  LIG2       -0.0284
      4    C       26.9890    3.1410    3.3990 C.3     2  LIG2       -0.0319
      5    C       28.8300    1.9670    4.9310 C.3     2  LIG2       -0.0294
      6    C       28.3900    0.4750    4.7320 C.3     2  LIG2       -0.0090
      7    C       25.9660    2.1750    4.0200 C.3     2  LIG2       -0.0468
      8    C       30.3510    1.9390    5.2070 C.3     2  LIG2       -0.0404
      9    C       27.5170    0.0910    3.4830 C.3     2  LIG2        0.0664
     10    C       29.6740   -0.3590    4.9410 C.3     2  LIG2       -0.0471
     11    C       26.0880    0.7270    3.5010 C.3     2  LIG2       -0.0237
     12    C       27.2160    4.6550    5.5730 C.3     2  LIG2       -0.0593
     13    C       28.0190    5.5240    3.3120 C.3     2  LIG2       -0.0593
     14    C       30.6280    0.5300    5.7350 C.3     2  LIG2       -0.0498
     15    C       30.8260    3.0600    6.1480 C.3     2  LIG2       -0.0621
     16    C       28.2030    0.3010    2.1050 C.3     2  LIG2       -0.0358
     17    H       29.2040    3.0710    3.0550 H       2  LIG2        0.0312
     18    H       26.7800    3.3120    2.3410 H       2  LIG2        0.0309
     19    H       28.3610    2.2640    5.8670 H       2  LIG2        0.0310
     20    H       27.7590    0.2310    5.5910 H       2  LIG2        0.0331
     21    H       26.0480    2.1510    5.1050 H       2  LIG2        0.0269
     22    H       24.9600    2.5440    3.8150 H       2  LIG2        0.0269
     23    H       30.8940    2.0360    4.2640 H       2  LIG2        0.0301
     24    H       29.4720   -1.2880    5.4750 H       2  LIG2        0.0269
     25    H       30.1330   -0.6340    3.9920 H       2  LIG2        0.0269
     26    H       25.4250    0.1330    4.1340 H       2  LIG2        0.0293
     27    H       25.6500    0.6790    2.5020 H       2  LIG2        0.0293
     28    H       26.3740    5.3480    5.5480 H       2  LIG2        0.0235
     29    H       28.0300    5.1460    6.1040 H       2  LIG2        0.0235
     30    H       26.9020    3.8140    6.1860 H       2  LIG2        0.0235
     31    H       27.1730    6.2090    3.2380 H       2  LIG2        0.0235
     32    H       28.3200    5.2700    2.2950 H       2  LIG2        0.0235
     33    H       28.8490    6.0650    3.7690 H       2  LIG2        0.0235
     34    H       31.6670    0.2330    5.5910 H       2  LIG2        0.0268
     35    H       30.4110    0.4650    6.8030 H       2  LIG2        0.0268
     36    H       30.3330    3.0080    7.1190 H       2  LIG2        0.0233
     37    H       30.6160    4.0420    5.7230 H       2  LIG2        0.0233
     38    H       31.9010    3.0000    6.3180 H       2  LIG2        0.0233
     39    H       28.3620    1.3460    1.8570 H       2  LIG2        0.0257
     40    H       27.5990   -0.1070    1.2930 H       2  LIG2        0.0257
     41    H       29.1740   -0.1910    2.0450 H       2  LIG2        0.0257
     42    H       26.7490   -1.5460    2.7570 H       2  LIG2        0.2102
@<TRIPOS>BOND
     1    40    16    1
     2    39    16    1
     3    41    16    1
     4    16     9    1
     5    32    13    1
     6    18     4    1
     7    27    11    1
     8    42     1    1
     9    17     2    1
    10    31    13    1
    11    13    33    1
    12    13     3    1
    13     4     2    1
    14     4     7    1
    15     4     3    1
    16     9    11    1
    17     9     1    1
    18     9     6    1
    19    11     7    1
    20    11    26    1
    21    22     7    1
    22     2     3    1
    23     2     5    1
    24    25    10    1
    25     7    21    1
    26     3    12    1
    27    23     8    1
    28     6     5    1
    29     6    10    1
    30     6    20    1
    31     5     8    1
    32     5    19    1
    33    10    24    1
    34    10    14    1
    35     8    14    1
    36     8    15    1
    37    28    12    1
    38    12    29    1
    39    12    30    1
    40    34    14    1
    41    37    15    1
    42    14    35    1
    43    15    38    1
    44    15    36    1
@<TRIPOS>MOLECULE
11996452_8_run_14.pdb
 42 44 0 0 0
SMALL
GASTEIGER

@<TRIPOS>ATOM
      1    O       31.3490   -0.8570    4.4070 O.3     2  LIG2       -0.3886
      2    C       27.7640    1.6120    3.3040 C.3     2  LIG2       -0.0289
      3    C       26.2750    1.2930    3.2290 C.3     2  LIG2       -0.0284
      4    C       27.2770    0.2080    2.9190 C.3     2  LIG2       -0.0319
      5    C       28.5290    1.8110    4.6440 C.3     2  LIG2       -0.0294
      6    C       29.7760    0.9090    4.9460 C.3     2  LIG2       -0.0090
      7    C       27.6260   -0.9550    3.8640 C.3     2  LIG2       -0.0468
      8    C       28.9930    3.2740    4.8360 C.3     2  LIG2       -0.0404
      9    C       30.1740   -0.2200    3.9270 C.3     2  LIG2        0.0664
     10    C       30.9030    1.8910    5.3390 C.3     2  LIG2       -0.0471
     11    C       29.1130   -1.3640    3.8190 C.3     2  LIG2       -0.0237
     12    C       25.3880    1.2170    4.4940 C.3     2  LIG2       -0.0593
     13    C       25.5090    1.8940    2.0360 C.3     2  LIG2       -0.0593
     14    C       30.2060    3.1810    5.7640 C.3     2  LIG2       -0.0498
     15    C       27.8850    4.2070    5.3520 C.3     2  LIG2       -0.0621
     16    C       30.6020    0.2790    2.5190 C.3     2  LIG2       -0.0358
     17    H       28.1870    2.2140    2.5000 H       2  LIG2        0.0312
     18    H       27.3480   -0.0980    1.8730 H       2  LIG2        0.0309
     19    H       27.8420    1.6040    5.4630 H       2  LIG2        0.0310
     20    H       29.5430    0.3730    5.8700 H       2  LIG2        0.0331
     21    H       27.3730   -0.7190    4.8950 H       2  LIG2        0.0269
     22    H       27.0100   -1.8180    3.6050 H       2  LIG2        0.0269
     23    H       29.3530    3.6690    3.8830 H       2  LIG2        0.0301
     24    H       31.5210    1.4980    6.1470 H       2  LIG2        0.0269
     25    H       31.5700    2.0930    4.5010 H       2  LIG2        0.0269
     26    H       29.2460   -2.0730    4.6390 H       2  LIG2        0.0293
     27    H       29.2860   -1.9430    2.9090 H       2  LIG2        0.0293
     28    H       24.4870    0.6360    4.2960 H       2  LIG2        0.0235
     29    H       25.0740    2.2150    4.8010 H       2  LIG2        0.0235
     30    H       25.8670    0.7590    5.3550 H       2  LIG2        0.0235
     31    H       24.6280    1.2980    1.7950 H       2  LIG2        0.0235
     32    H       26.1230    1.9420    1.1360 H       2  LIG2        0.0235
     33    H       25.1770    2.9090    2.2570 H       2  LIG2        0.0235
     34    H       30.8650    4.0440    5.6670 H       2  LIG2        0.0268
     35    H       29.8930    3.1210    6.8080 H       2  LIG2        0.0268
     36    H       27.4940    3.8760    6.3150 H       2  LIG2        0.0233
     37    H       27.0490    4.2470    4.6510 H       2  LIG2        0.0233
     38    H       28.2560    5.2250    5.4760 H       2  LIG2        0.0233
     39    H       29.7850    0.7110    1.9480 H       2  LIG2        0.0257
     40    H       30.9890   -0.5380    1.9080 H       2  LIG2        0.0257
     41    H       31.3890    1.0310    2.5660 H       2  LIG2        0.0257
     42    H       32.0780   -0.2360    4.3390 H       2  LIG2        0.2102
@<TRIPOS>BOND
     1    32    13    1
     2    31    13    1
     3    18     4    1
     4    40    16    1
     5    39    16    1
     6    13    33    1
     7    13     3    1
     8    17     2    1
     9    16    41    1
    10    16     9    1
    11    27    11    1
    12     4     3    1
    13     4     2    1
    14     4     7    1
    15     3     2    1
    16     3    12    1
    17     2     5    1
    18    22     7    1
    19    11     7    1
    20    11     9    1
    21    11    26    1
    22     7    21    1
    23    23     8    1
    24     9     1    1
    25     9     6    1
    26    28    12    1
    27    42     1    1
    28    12    29    1
    29    12    30    1
    30    25    10    1
    31     5     8    1
    32     5     6    1
    33     5    19    1
    34    37    15    1
    35     8    15    1
    36     8    14    1
    37     6    10    1
    38     6    20    1
    39    10    14    1
    40    10    24    1
    41    15    38    1
    42    15    36    1
    43    34    14    1
    44    14    35    1
@<TRIPOS>MOLECULE
11996452_8_run_14.pdb
 42 44 0 0 0
SMALL
GASTEIGER

@<TRIPOS>ATOM
      1    O       31.3490    0.0150    5.5160 O.3     2  LIG2       -0.3886
      2    C       27.5340    2.3540    5.1430 C.3     2  LIG2       -0.0289
      3    C       27.2460    3.8060    4.7750 C.3     2  LIG2       -0.0284
      4    C       28.5230    3.4710    5.5060 C.3     2  LIG2       -0.0319
      5    C       27.9520    1.2760    4.1020 C.3     2  LIG2       -0.0294
      6    C       29.2980    0.5000    4.3140 C.3     2  LIG2       -0.0090
      7    C       29.9170    3.4320    4.8550 C.3     2  LIG2       -0.0468
      8    C       26.8570    0.2010    3.9080 C.3     2  LIG2       -0.0404
      9    C       30.2250    0.8840    5.5250 C.3     2  LIG2        0.0664
     10    C       28.9300   -0.9960    4.1940 C.3     2  LIG2       -0.0471
     11    C       30.8300    2.3220    5.4150 C.3     2  LIG2       -0.0237
     12    C       27.2740    4.3010    3.3100 C.3     2  LIG2       -0.0593
     13    C       26.1430    4.5080    5.5890 C.3     2  LIG2       -0.0593
     14    C       27.6090   -1.0420    3.4300 C.3     2  LIG2       -0.0498
     15    C       25.7230    0.6430    2.9670 C.3     2  LIG2       -0.0621
     16    C       29.6120    0.6430    6.9310 C.3     2  LIG2       -0.0358
     17    H       26.9650    1.9260    5.9680 H       2  LIG2        0.0312
     18    H       28.5830    3.7950    6.5460 H       2  LIG2        0.0309
     19    H       28.0700    1.7620    3.1360 H       2  LIG2        0.0310
     20    H       29.9070    0.7060    3.4290 H       2  LIG2        0.0331
     21    H       29.8490    3.3000    3.7770 H       2  LIG2        0.0269
     22    H       30.4010    4.3990    4.9970 H       2  LIG2        0.0269
     23    H       26.4160   -0.0480    4.8760 H       2  LIG2        0.0301
     24    H       29.7010   -1.5630    3.6730 H       2  LIG2        0.0269
     25    H       28.8050   -1.4580    5.1730 H       2  LIG2        0.0269
     26    H       31.7070    2.3080    4.7630 H       2  LIG2        0.0293
     27    H       31.2040    2.6410    6.3910 H       2  LIG2        0.0293
     28    H       27.4130    5.3820    3.2740 H       2  LIG2        0.0235
     29    H       26.3330    4.0740    2.8110 H       2  LIG2        0.0235
     30    H       28.0650    3.8700    2.7020 H       2  LIG2        0.0235
     31    H       26.2920    5.5890    5.6010 H       2  LIG2        0.0235
     32    H       26.1210    4.1730    6.6260 H       2  LIG2        0.0235
     33    H       25.1590    4.3110    5.1630 H       2  LIG2        0.0235
     34    H       27.0590   -1.9610    3.6360 H       2  LIG2        0.0268
     35    H       27.7880   -0.9990    2.3540 H       2  LIG2        0.0268
     36    H       26.0970    0.8890    1.9720 H       2  LIG2        0.0233
     37    H       25.2130    1.5250    3.3560 H       2  LIG2        0.0233
     38    H       24.9770   -0.1440    2.8550 H       2  LIG2        0.0233
     39    H       28.7860    1.3100    7.1620 H       2  LIG2        0.0257
     40    H       30.3490    0.8020    7.7200 H       2  LIG2        0.0257
     41    H       29.2420   -0.3750    7.0550 H       2  LIG2        0.0257
     42    H       31.9090    0.2530    4.7740 H       2  LIG2        0.2102
@<TRIPOS>BOND
     1    36    15    1
     2    35    14    1
     3    30    12    1
     4    29    12    1
     5    38    15    1
     6    15    37    1
     7    15     8    1
     8    19     5    1
     9    28    12    1
    10    12     3    1
    11    20     6    1
    12    14    34    1
    13    14     8    1
    14    14    10    1
    15    24    10    1
    16    21     7    1
    17     8     5    1
    18     8    23    1
    19     5     6    1
    20     5     2    1
    21    10     6    1
    22    10    25    1
    23     6     9    1
    24    26    11    1
    25    42     1    1
    26     3     2    1
    27     3     4    1
    28     3    13    1
    29     7    22    1
    30     7    11    1
    31     7     4    1
    32     2     4    1
    33     2    17    1
    34    33    13    1
    35    11     9    1
    36    11    27    1
    37     4    18    1
    38     1     9    1
    39     9    16    1
    40    13    31    1
    41    13    32    1
    42    16    41    1
    43    16    39    1
    44    16    40    1
@<TRIPOS>MOLECULE
11996452_8_run_20.pdb
 42 44 0 0 0
SMALL
GASTEIGER

@<TRIPOS>ATOM
      1    O       26.6060    4.9250    3.5550 O.3     2  LIG2       -0.3886
      2    C       27.6180    0.7270    4.7850 C.3     2  LIG2       -0.0289
      3    C       27.5430   -0.6090    4.0530 C.3     2  LIG2       -0.0284
      4    C       26.5340    0.4650    3.7300 C.3     2  LIG2       -0.0319
      5    C       28.7130    1.7960    4.5020 C.3     2  LIG2       -0.0294
      6    C       28.2700    3.2410    4.0840 C.3     2  LIG2       -0.0090
      7    C       26.5520    1.3260    2.4550 C.3     2  LIG2       -0.0468
      8    C       29.6810    1.9660    5.6960 C.3     2  LIG2       -0.0404
      9    C       26.7410    3.5510    3.8870 C.3     2  LIG2        0.0664
     10    C       29.0340    4.1920    5.0330 C.3     2  LIG2       -0.0471
     11    C       26.0990    2.7830    2.6860 C.3     2  LIG2       -0.0237
     12    C       28.6080   -1.0360    3.0160 C.3     2  LIG2       -0.0593
     13    C       27.0420   -1.8090    4.8770 C.3     2  LIG2       -0.0593
     14    C       30.2220    3.3900    5.5620 C.3     2  LIG2       -0.0498
     15    C       30.7760    0.8880    5.7560 C.3     2  LIG2       -0.0621
     16    C       25.8680    3.4170    5.1650 C.3     2  LIG2       -0.0358
     17    H       27.2870    0.7470    5.8230 H       2  LIG2        0.0312
     18    H       25.5120    0.2840    4.0690 H       2  LIG2        0.0309
     19    H       29.3210    1.4490    3.6690 H       2  LIG2        0.0310
     20    H       28.7130    3.4190    3.1000 H       2  LIG2        0.0331
     21    H       27.5430    1.3490    2.0050 H       2  LIG2        0.0269
     22    H       25.9060    0.8650    1.7070 H       2  LIG2        0.0269
     23    H       29.1160    1.9270    6.6300 H       2  LIG2        0.0301
     24    H       29.3700    5.0930    4.5210 H       2  LIG2        0.0269
     25    H       28.4100    4.5160    5.8650 H       2  LIG2        0.0269
     26    H       26.3140    3.3070    1.7520 H       2  LIG2        0.0293
     27    H       25.0110    2.7970    2.7780 H       2  LIG2        0.0293
     28    H       28.2110   -1.8060    2.3540 H       2  LIG2        0.0235
     29    H       29.4830   -1.4530    3.5160 H       2  LIG2        0.0235
     30    H       28.9640   -0.2330    2.3760 H       2  LIG2        0.0235
     31    H       26.5990   -2.5700    4.2330 H       2  LIG2        0.0235
     32    H       26.2830   -1.5200    5.6050 H       2  LIG2        0.0235
     33    H       27.8600   -2.2720    5.4300 H       2  LIG2        0.0235
     34    H       30.5800    3.7860    6.5130 H       2  LIG2        0.0268
     35    H       31.0530    3.4270    4.8550 H       2  LIG2        0.0268
     36    H       31.3910    0.8860    4.8550 H       2  LIG2        0.0233
     37    H       30.3410   -0.1070    5.8620 H       2  LIG2        0.0233
     38    H       31.4370    1.0480    6.6080 H       2  LIG2        0.0233
     39    H       25.7670    2.3930    5.5120 H       2  LIG2        0.0257
     40    H       24.8510    3.7720    4.9910 H       2  LIG2        0.0257
     41    H       26.2600    3.9990    5.9990 H       2  LIG2        0.0257
     42    H       27.1830    5.1140    2.8110 H       2  LIG2        0.2102
@<TRIPOS>BOND
     1    22     7    1
     2    26    11    1
     3    21     7    1
     4    28    12    1
     5    30    12    1
     6     7    11    1
     7     7     4    1
     8    11    27    1
     9    11     9    1
    10    42     1    1
    11    12    29    1
    12    12     3    1
    13    20     6    1
    14     1     9    1
    15    19     5    1
    16     4     3    1
    17     4    18    1
    18     4     2    1
    19     9     6    1
    20     9    16    1
    21     3     2    1
    22     3    13    1
    23     6     5    1
    24     6    10    1
    25    31    13    1
    26     5     2    1
    27     5     8    1
    28    24    10    1
    29     2    17    1
    30    36    15    1
    31    35    14    1
    32    13    33    1
    33    13    32    1
    34    40    16    1
    35    10    14    1
    36    10    25    1
    37    16    39    1
    38    16    41    1
    39    14     8    1
    40    14    34    1
    41     8    15    1
    42     8    23    1
    43    15    37    1
    44    15    38    1
@<TRIPOS>MOLECULE
11996452_8_run_14.pdb
 42 44 0 0 0
SMALL
GASTEIGER

@<TRIPOS>ATOM
      1    O       27.2880   -1.6560    3.1140 O.3     2  LIG2       -0.3886
      2    C       29.2050    1.3890    5.8010 C.3     2  LIG2       -0.0289
      3    C       30.6540    1.8190    6.0030 C.3     2  LIG2       -0.0284
      4    C       30.3560    0.3870    5.6320 C.3     2  LIG2       -0.0319
      5    C       28.3590    1.7930    4.5590 C.3     2  LIG2       -0.0294
      6    C       27.7200    0.6640    3.6780 C.3     2  LIG2       -0.0090
      7    C       30.5800   -0.2170    4.2350 C.3     2  LIG2       -0.0468
      8    C       27.2110    2.7600    4.9280 C.3     2  LIG2       -0.0404
      9    C       28.0110   -0.8410    4.0260 C.3     2  LIG2        0.0664
     10    C       26.2290    1.0480    3.5430 C.3     2  LIG2       -0.0471
     11    C       29.5080   -1.2490    3.8280 C.3     2  LIG2       -0.0237
     12    C       31.3750    2.7640    5.0130 C.3     2  LIG2       -0.0593
     13    C       31.0890    2.0850    7.4570 C.3     2  LIG2       -0.0593
     14    C       26.1530    2.5440    3.8450 C.3     2  LIG2       -0.0498
     15    C       27.6630    4.2230    5.0730 C.3     2  LIG2       -0.0621
     16    C       27.4820   -1.3170    5.4070 C.3     2  LIG2       -0.0358
     17    H       28.5900    1.2710    6.6930 H       2  LIG2        0.0312
     18    H       30.5170   -0.3570    6.4140 H       2  LIG2        0.0309
     19    H       29.0030    2.3390    3.8710 H       2  LIG2        0.0310
     20    H       28.1310    0.7960    2.6740 H       2  LIG2        0.0331
     21    H       30.6140    0.5540    3.4690 H       2  LIG2        0.0269
     22    H       31.5620   -0.6920    4.2080 H       2  LIG2        0.0269
     23    H       26.7640    2.4490    5.8750 H       2  LIG2        0.0301
     24    H       25.8430    0.8320    2.5470 H       2  LIG2        0.0269
     25    H       25.6070    0.4990    4.2490 H       2  LIG2        0.0269
     26    H       29.6970   -1.4670    2.7740 H       2  LIG2        0.0293
     27    H       29.7090   -2.1840    4.3550 H       2  LIG2        0.0293
     28    H       32.4560    2.6630    5.1050 H       2  LIG2        0.0235
     29    H       31.1230    3.8030    5.2240 H       2  LIG2        0.0235
     30    H       31.1380    2.5890    3.9670 H       2  LIG2        0.0235
     31    H       32.1640    1.9440    7.5770 H       2  LIG2        0.0235
     32    H       30.5930    1.4170    8.1630 H       2  LIG2        0.0235
     33    H       30.8490    3.1060    7.7550 H       2  LIG2        0.0235
     34    H       25.1570    2.8350    4.1780 H       2  LIG2        0.0268
     35    H       26.3850    3.1260    2.9520 H       2  LIG2        0.0268
     36    H       28.1040    4.6030    4.1500 H       2  LIG2        0.0233
     37    H       28.4080    4.3270    5.8630 H       2  LIG2        0.0233
     38    H       26.8230    4.8700    5.3290 H       2  LIG2        0.0233
     39    H       28.0050   -0.8680    6.2470 H       2  LIG2        0.0257
     40    H       27.5990   -2.3950    5.5290 H       2  LIG2        0.0257
     41    H       26.4220   -1.1030    5.5430 H       2  LIG2        0.0257
     42    H       27.4720   -1.3470    2.2240 H       2  LIG2        0.2102
@<TRIPOS>BOND
     1    42     1    1
     2    24    10    1
     3    20     6    1
     4    26    11    1
     5    35    14    1
     6     1     9    1
     7    21     7    1
     8    10     6    1
     9    10    14    1
    10    10    25    1
    11     6     9    1
    12     6     5    1
    13    11     9    1
    14    11     7    1
    15    11    27    1
    16    14    34    1
    17    14     8    1
    18    19     5    1
    19    30    12    1
    20     9    16    1
    21    36    15    1
    22    22     7    1
    23     7     4    1
    24     5     8    1
    25     5     2    1
    26     8    15    1
    27     8    23    1
    28    12    28    1
    29    12    29    1
    30    12     3    1
    31    15    38    1
    32    15    37    1
    33    16    40    1
    34    16    41    1
    35    16    39    1
    36     4     2    1
    37     4     3    1
    38     4    18    1
    39     2     3    1
    40     2    17    1
    41     3    13    1
    42    13    31    1
    43    13    33    1
    44    13    32    1
@<TRIPOS>MOLECULE
11996452_8_run_13.pdb
 42 44 0 0 0
SMALL
GASTEIGER

@<TRIPOS>ATOM
      1    O       27.3530    6.0880    4.8060 O.3     2  LIG2       -0.3886
      2    C       27.8020    1.9060    3.2310 C.3     2  LIG2       -0.0289
      3    C       28.6840    0.7350    3.6510 C.3     2  LIG2       -0.0284
      4    C       29.1980    2.1430    3.8240 C.3     2  LIG2       -0.0319
      5    C       26.5480    2.3620    4.0320 C.3     2  LIG2       -0.0294
      6    C       26.4700    3.8440    4.5400 C.3     2  LIG2       -0.0090
      7    C       29.2890    2.8800    5.1720 C.3     2  LIG2       -0.0468
      8    C       25.2370    2.0980    3.2570 C.3     2  LIG2       -0.0404
      9    C       27.6890    4.8060    4.2940 C.3     2  LIG2        0.0664
     10    C       25.0950    4.3650    4.0670 C.3     2  LIG2       -0.0471
     11    C       28.9800    4.3890    5.0730 C.3     2  LIG2       -0.0237
     12    C       28.3480   -0.1450    4.8780 C.3     2  LIG2       -0.0593
     13    C       29.3010   -0.0960    2.5110 C.3     2  LIG2       -0.0593
     14    C       24.2430    3.1230    3.8070 C.3     2  LIG2       -0.0498
     15    C       24.7470    0.6430    3.3550 C.3     2  LIG2       -0.0621
     16    C       28.0100    5.1030    2.8040 C.3     2  LIG2       -0.0358
     17    H       27.6930    2.0920    2.1630 H       2  LIG2        0.0312
     18    H       30.0030    2.4480    3.1530 H       2  LIG2        0.0309
     19    H       26.4870    1.7630    4.9390 H       2  LIG2        0.0310
     20    H       26.3840    3.7850    5.6280 H       2  LIG2        0.0331
     21    H       28.6160    2.4460    5.9090 H       2  LIG2        0.0269
     22    H       30.2910    2.7470    5.5820 H       2  LIG2        0.0269
     23    H       25.3850    2.3350    2.2010 H       2  LIG2        0.0301
     24    H       24.6260    5.0090    4.8110 H       2  LIG2        0.0269
     25    H       25.1790    4.9500    3.1520 H       2  LIG2        0.0269
     26    H       28.9220    4.7430    6.1050 H       2  LIG2        0.0293
     27    H       29.8490    4.8930    4.6450 H       2  LIG2        0.0293
     28    H       29.2390   -0.6640    5.2330 H       2  LIG2        0.0235
     29    H       27.6100   -0.9020    4.6160 H       2  LIG2        0.0235
     30    H       27.9510    0.4000    5.7300 H       2  LIG2        0.0235
     31    H       30.2190   -0.5870    2.8350 H       2  LIG2        0.0235
     32    H       29.5500    0.5180    1.6440 H       2  LIG2        0.0235
     33    H       28.6090   -0.8680    2.1730 H       2  LIG2        0.0235
     34    H       23.4360    3.3320    3.1050 H       2  LIG2        0.0268
     35    H       23.7910    2.7690    4.7350 H       2  LIG2        0.0268
     36    H       24.5620    0.3480    4.3890 H       2  LIG2        0.0233
     37    H       25.4840   -0.0460    2.9410 H       2  LIG2        0.0233
     38    H       23.8200    0.5030    2.7990 H       2  LIG2        0.0233
     39    H       28.3930    4.2410    2.2650 H       2  LIG2        0.0257
     40    H       28.7750    5.8750    2.7070 H       2  LIG2        0.0257
     41    H       27.1390    5.4600    2.2540 H       2  LIG2        0.0257
     42    H       27.1020    5.9870    5.7280 H       2  LIG2        0.2102
@<TRIPOS>BOND
     1    32    13    1
     2    17     2    1
     3    33    13    1
     4    23     8    1
     5    41    16    1
     6    39    16    1
     7    13    31    1
     8    13     3    1
     9    40    16    1
    10    38    15    1
    11    16     9    1
    12    37    15    1
    13    34    14    1
    14    25    10    1
    15    18     4    1
    16     2     3    1
    17     2     4    1
    18     2     5    1
    19     8    15    1
    20     8    14    1
    21     8     5    1
    22    15    36    1
    23     3     4    1
    24     3    12    1
    25    14    10    1
    26    14    35    1
    27     4     7    1
    28     5     6    1
    29     5    19    1
    30    10     6    1
    31    10    24    1
    32     9     6    1
    33     9     1    1
    34     9    11    1
    35     6    20    1
    36    29    12    1
    37    27    11    1
    38     1    42    1
    39    12    28    1
    40    12    30    1
    41    11     7    1
    42    11    26    1
    43     7    22    1
    44     7    21    1
@<TRIPOS>MOLECULE
11996452_8_run_23.pdb
 42 44 0 0 0
SMALL
GASTEIGER

@<TRIPOS>ATOM
      1    O       24.7420    7.7310    4.5290 O.3     2  LIG2       -0.3886
      2    C       26.9990    3.9340    3.7180 C.3     2  LIG2       -0.0289
      3    C       28.2250    3.3040    4.3700 C.3     2  LIG2       -0.0284
      4    C       28.1100    4.8080    4.3200 C.3     2  LIG2       -0.0319
      5    C       25.5890    3.9380    4.3750 C.3     2  LIG2       -0.0294
      6    C       24.8680    5.3100    4.6160 C.3     2  LIG2       -0.0090
      7    C       27.7490    5.6970    5.5220 C.3     2  LIG2       -0.0468
      8    C       24.5860    3.0500    3.6020 C.3     2  LIG2       -0.0404
      9    C       25.6180    6.6450    4.2600 C.3     2  LIG2        0.0664
     10    C       23.4590    5.1430    4.0030 C.3     2  LIG2       -0.0471
     11    C       26.8740    6.9120    5.1530 C.3     2  LIG2       -0.0237
     12    C       28.1390    2.5440    5.7150 C.3     2  LIG2       -0.0593
     13    C       29.2440    2.6520    3.4170 C.3     2  LIG2       -0.0593
     14    C       23.2120    3.6380    3.9250 C.3     2  LIG2       -0.0498
     15    C       24.7140    1.5520    3.9290 C.3     2  LIG2       -0.0621
     16    C       25.9530    6.8360    2.7550 C.3     2  LIG2       -0.0358
     17    H       26.9420    3.9070    2.6300 H       2  LIG2        0.0312
     18    H       28.7930    5.3210    3.6410 H       2  LIG2        0.0309
     19    H       25.6740    3.5000    5.3680 H       2  LIG2        0.0310
     20    H       24.6950    5.3730    5.6930 H       2  LIG2        0.0331
     21    H       27.2310    5.1310    6.2940 H       2  LIG2        0.0269
     22    H       28.6690    6.0480    5.9920 H       2  LIG2        0.0269
     23    H       24.7410    3.1760    2.5280 H       2  LIG2        0.0301
     24    H       22.6940    5.6330    4.6050 H       2  LIG2        0.0269
     25    H       23.4020    5.5770    3.0050 H       2  LIG2        0.0269
     26    H       26.5660    7.3510    6.1050 H       2  LIG2        0.0293
     27    H       27.5090    7.6660    4.6820 H       2  LIG2        0.0293
     28    H       29.1190    2.4960    6.1910 H       2  LIG2        0.0235
     29    H       27.8000    1.5210    5.5560 H       2  LIG2        0.0235
     30    H       27.4660    2.9890    6.4430 H       2  LIG2        0.0235
     31    H       30.2410    2.6360    3.8590 H       2  LIG2        0.0235
     32    H       29.3190    3.1860    2.4690 H       2  LIG2        0.0235
     33    H       28.9620    1.6240    3.1880 H       2  LIG2        0.0235
     34    H       22.4700    3.3930    3.1640 H       2  LIG2        0.0268
     35    H       22.8420    3.2620    4.8800 H       2  LIG2        0.0268
     36    H       24.5510    1.3540    4.9890 H       2  LIG2        0.0233
     37    H       25.7060    1.1790    3.6710 H       2  LIG2        0.0233
     38    H       23.9880    0.9640    3.3660 H       2  LIG2        0.0233
     39    H       26.7050    6.1440    2.3900 H       2  LIG2        0.0257
     40    H       26.3490    7.8340    2.5590 H       2  LIG2        0.0257
     41    H       25.0770    6.7200    2.1160 H       2  LIG2        0.0257
     42    H       24.4380    7.6550    5.4370 H       2  LIG2        0.2102
@<TRIPOS>BOND
     1    41    16    1
     2    39    16    1
     3    32    13    1
     4    23     8    1
     5    40    16    1
     6    17     2    1
     7    16     9    1
     8    25    10    1
     9    34    14    1
    10    33    13    1
    11    38    15    1
    12    13    31    1
    13    13     3    1
    14     8    14    1
    15     8    15    1
    16     8     5    1
    17    18     4    1
    18    37    15    1
    19     2     4    1
    20     2     3    1
    21     2     5    1
    22    14    10    1
    23    14    35    1
    24    15    36    1
    25    10    24    1
    26    10     6    1
    27     9     1    1
    28     9     6    1
    29     9    11    1
    30     4     3    1
    31     4     7    1
    32     3    12    1
    33     5     6    1
    34     5    19    1
    35     1    42    1
    36     6    20    1
    37    27    11    1
    38    11     7    1
    39    11    26    1
    40     7    22    1
    41     7    21    1
    42    29    12    1
    43    12    28    1
    44    12    30    1
@<TRIPOS>MOLECULE
11996452_8_run_10.pdb
 42 44 0 0 0
SMALL
GASTEIGER

@<TRIPOS>ATOM
      1    O       25.2780    2.6560    3.3090 O.3     2  LIG2       -0.3886
      2    C       29.5520    2.2350    4.6190 C.3     2  LIG2       -0.0289
      3    C       30.2470    2.4570    5.9590 C.3     2  LIG2       -0.0284
      4    C       29.0540    3.3090    5.5980 C.3     2  LIG2       -0.0319
      5    C       28.6510    1.0030    4.3180 C.3     2  LIG2       -0.0294
      6    C       27.1710    1.2410    3.8590 C.3     2  LIG2       -0.0090
      7    C       27.6460    3.1360    6.1940 C.3     2  LIG2       -0.0468
      8    C       29.2860    0.0620    3.2690 C.3     2  LIG2       -0.0404
      9    C       26.6140    2.7100    3.7880 C.3     2  LIG2        0.0664
     10    C       27.0000    0.3930    2.5780 C.3     2  LIG2       -0.0471
     11    C       26.5110    3.4060    5.1850 C.3     2  LIG2       -0.0237
     12    C       30.1670    1.4220    7.1050 C.3     2  LIG2       -0.0593
     13    C       31.6280    3.1360    5.9040 C.3     2  LIG2       -0.0593
     14    C       28.1020   -0.6630    2.6250 C.3     2  LIG2       -0.0498
     15    C       30.3490   -0.8830    3.8550 C.3     2  LIG2       -0.0621
     16    C       27.3140    3.6350    2.7550 C.3     2  LIG2       -0.0358
     17    H       30.0620    2.5950    3.7260 H       2  LIG2        0.0312
     18    H       29.2610    4.3560    5.3700 H       2  LIG2        0.0309
     19    H       28.5580    0.4170    5.2310 H       2  LIG2        0.0310
     20    H       26.5410    0.7470    4.6030 H       2  LIG2        0.0331
     21    H       27.5060    2.1370    6.6000 H       2  LIG2        0.0269
     22    H       27.5370    3.8120    7.0440 H       2  LIG2        0.0269
     23    H       29.7580    0.6570    2.4840 H       2  LIG2        0.0301
     24    H       26.0160   -0.0730    2.5280 H       2  LIG2        0.0269
     25    H       27.1090    0.9980    1.6790 H       2  LIG2        0.0269
     26    H       25.5930    3.0940    5.6880 H       2  LIG2        0.0293
     27    H       26.4120    4.4860    5.0540 H       2  LIG2        0.0293
     28    H       30.3910    1.8930    8.0630 H       2  LIG2        0.0235
     29    H       30.8950    0.6260    6.9530 H       2  LIG2        0.0235
     30    H       29.1970    0.9450    7.2170 H       2  LIG2        0.0235
     31    H       31.8490    3.6520    6.8400 H       2  LIG2        0.0235
     32    H       31.6920    3.8760    5.1050 H       2  LIG2        0.0235
     33    H       32.4170    2.4030    5.7310 H       2  LIG2        0.0235
     34    H       28.3410   -1.0370    1.6300 H       2  LIG2        0.0268
     35    H       27.7900   -1.5150    3.2320 H       2  LIG2        0.0268
     36    H       29.9350   -1.5230    4.6360 H       2  LIG2        0.0233
     37    H       31.1750   -0.3200    4.2920 H       2  LIG2        0.0233
     38    H       30.7670   -1.5310    3.0840 H       2  LIG2        0.0233
     39    H       28.3390    3.8790    3.0200 H       2  LIG2        0.0257
     40    H       26.7970    4.5920    2.6620 H       2  LIG2        0.0257
     41    H       27.3390    3.1990    1.7560 H       2  LIG2        0.0257
     42    H       24.7800    2.0580    3.8710 H       2  LIG2        0.2102
@<TRIPOS>BOND
     1    34    14    1
     2    25    10    1
     3    41    16    1
     4    23     8    1
     5    24    10    1
     6    10    14    1
     7    10     6    1
     8    14    35    1
     9    14     8    1
    10    40    16    1
    11    16    39    1
    12    16     9    1
    13    38    15    1
    14     8    15    1
    15     8     5    1
    16     1     9    1
    17     1    42    1
    18    17     2    1
    19     9     6    1
    20     9    11    1
    21    15    37    1
    22    15    36    1
    23     6     5    1
    24     6    20    1
    25     5     2    1
    26     5    19    1
    27     2     4    1
    28     2     3    1
    29    27    11    1
    30    32    13    1
    31    11    26    1
    32    11     7    1
    33    18     4    1
    34     4     3    1
    35     4     7    1
    36    33    13    1
    37    13     3    1
    38    13    31    1
    39     3    12    1
    40     7    21    1
    41     7    22    1
    42    29    12    1
    43    12    30    1
    44    12    28    1
@<TRIPOS>MOLECULE
11996452_8_run_8.pdb
 42 44 0 0 0
SMALL
GASTEIGER

@<TRIPOS>ATOM
      1    O       24.9670    5.3010    3.5100 O.3     2  LIG2       -0.3886
      2    C       28.3590    2.4260    4.1360 C.3     2  LIG2       -0.0289
      3    C       29.4340    2.3170    5.2120 C.3     2  LIG2       -0.0284
      4    C       28.9130    3.6800    4.8270 C.3     2  LIG2       -0.0319
      5    C       26.8740    2.0220    4.3670 C.3     2  LIG2       -0.0294
      6    C       25.7520    3.0880    4.1180 C.3     2  LIG2       -0.0090
      7    C       27.9410    4.5150    5.6790 C.3     2  LIG2       -0.0468
      8    C       26.4780    0.7730    3.5470 C.3     2  LIG2       -0.0404
      9    C       26.1570    4.5530    3.7170 C.3     2  LIG2        0.0664
     10    C       24.7290    2.3930    3.1900 C.3     2  LIG2       -0.0471
     11    C       26.9220    5.3190    4.8460 C.3     2  LIG2       -0.0237
     12    C       29.1400    1.7180    6.6070 C.3     2  LIG2       -0.0593
     13    C       30.8490    1.9520    4.7260 C.3     2  LIG2       -0.0593
     14    C       24.9660    0.8930    3.3550 C.3     2  LIG2       -0.0498
     15    C       26.9200   -0.5520    4.1930 C.3     2  LIG2       -0.0621
     16    C       26.8910    4.6880    2.3550 C.3     2  LIG2       -0.0358
     17    H       28.6690    2.2680    3.1030 H       2  LIG2        0.0312
     18    H       29.6000    4.3200    4.2720 H       2  LIG2        0.0309
     19    H       26.7560    1.7450    5.4130 H       2  LIG2        0.0310
     20    H       25.2270    3.2010    5.0710 H       2  LIG2        0.0331
     21    H       27.3880    3.8920    6.3780 H       2  LIG2        0.0269
     22    H       28.5170    5.2030    6.3010 H       2  LIG2        0.0269
     23    H       26.9300    0.8310    2.5530 H       2  LIG2        0.0301
     24    H       23.7030    2.6560    3.4480 H       2  LIG2        0.0269
     25    H       24.8760    2.6750    2.1490 H       2  LIG2        0.0269
     26    H       26.2090    5.7250    5.5680 H       2  LIG2        0.0293
     27    H       27.4290    6.1890    4.4230 H       2  LIG2        0.0293
     28    H       29.8820    2.0520    7.3320 H       2  LIG2        0.0235
     29    H       29.1810    0.6290    6.5730 H       2  LIG2        0.0235
     30    H       28.1690    1.9830    7.0180 H       2  LIG2        0.0235
     31    H       31.6090    2.3180    5.4180 H       2  LIG2        0.0235
     32    H       31.0700    2.3780    3.7470 H       2  LIG2        0.0235
     33    H       30.9660    0.8710    4.6430 H       2  LIG2        0.0235
     34    H       24.6150    0.3350    2.4870 H       2  LIG2        0.0268
     35    H       24.4310    0.5160    4.2290 H       2  LIG2        0.0268
     36    H       26.4860   -0.6810    5.1850 H       2  LIG2        0.0233
     37    H       28.0050   -0.5940    4.2980 H       2  LIG2        0.0233
     38    H       26.6170   -1.4050    3.5850 H       2  LIG2        0.0233
     39    H       27.8880    4.2560    2.3580 H       2  LIG2        0.0257
     40    H       27.0240    5.7350    2.0760 H       2  LIG2        0.0257
     41    H       26.3430    4.2180    1.5380 H       2  LIG2        0.0257
     42    H       24.4130    5.2070    4.2880 H       2  LIG2        0.2102
@<TRIPOS>BOND
     1    41    16    1
     2    40    16    1
     3    25    10    1
     4    16    39    1
     5    16     9    1
     6    34    14    1
     7    23     8    1
     8    17     2    1
     9    10    14    1
    10    10    24    1
    11    10     6    1
    12    14     8    1
    13    14    35    1
    14     1     9    1
    15     1    42    1
    16     8    15    1
    17     8     5    1
    18    38    15    1
    19     9     6    1
    20     9    11    1
    21    32    13    1
    22     6     5    1
    23     6    20    1
    24     2     5    1
    25     2     4    1
    26     2     3    1
    27    15    37    1
    28    15    36    1
    29    18     4    1
    30     5    19    1
    31    27    11    1
    32    33    13    1
    33    13     3    1
    34    13    31    1
    35     4     3    1
    36     4     7    1
    37    11    26    1
    38    11     7    1
    39     3    12    1
    40     7    22    1
    41     7    21    1
    42    29    12    1
    43    12    30    1
    44    12    28    1
