@<TRIPOS>MOLECULE
11996452_1_run_12.pdb
 42 44 0 0 0
SMALL
GASTEIGER

@<TRIPOS>ATOM
      1    O       30.8490    1.0160    2.8590 O.3     2  LIG2       -0.3886
      2    C       28.2050    3.1830    3.6000 C.3     2  LIG2       -0.0289
      3    C       27.8720    3.6080    5.0220 C.3     2  LIG2       -0.0284
      4    C       29.3260    3.5130    4.6100 C.3     2  LIG2       -0.0319
      5    C       27.9020    1.8160    2.8860 C.3     2  LIG2       -0.0294
      6    C       28.5280    0.4480    3.2620 C.3     2  LIG2       -0.0090
      7    C       30.3360    2.5400    5.2640 C.3     2  LIG2       -0.0468
      8    C       26.4000    1.4660    2.7160 C.3     2  LIG2       -0.0404
      9    C       29.9870    0.3800    3.7910 C.3     2  LIG2        0.0664
     10    C       27.4440   -0.3380    4.0310 C.3     2  LIG2       -0.0471
     11    C       30.1910    1.0120    5.1850 C.3     2  LIG2       -0.0237
     12    C       27.3150    5.0330    5.2050 C.3     2  LIG2       -0.0593
     13    C       27.2680    2.6420    6.0550 C.3     2  LIG2       -0.0593
     14    C       26.1070    0.3640    3.7480 C.3     2  LIG2       -0.0498
     15    C       25.4060    2.6430    2.7530 C.3     2  LIG2       -0.0621
     16    C       30.4840   -1.0870    3.8270 C.3     2  LIG2       -0.0358
     17    H       28.0280    3.9660    2.8600 H       2  LIG2        0.0312
     18    H       29.8500    4.4350    4.3550 H       2  LIG2        0.0309
     19    H       28.2820    2.0140    1.8800 H       2  LIG2        0.0310
     20    H       28.5810   -0.0830    2.3060 H       2  LIG2        0.0331
     21    H       31.3220    2.7970    4.8730 H       2  LIG2        0.0269
     22    H       30.4000    2.8100    6.3180 H       2  LIG2        0.0269
     23    H       26.2840    1.0120    1.7300 H       2  LIG2        0.0301
     24    H       27.4040   -1.3670    3.6700 H       2  LIG2        0.0269
     25    H       27.6390   -0.4110    5.0990 H       2  LIG2        0.0269
     26    H       31.1100    0.6100    5.6160 H       2  LIG2        0.0293
     27    H       29.4380    0.6560    5.8830 H       2  LIG2        0.0293
     28    H       27.5230    5.4090    6.2070 H       2  LIG2        0.0235
     29    H       26.2350    5.0550    5.0580 H       2  LIG2        0.0235
     30    H       27.7510    5.7420    4.4990 H       2  LIG2        0.0235
     31    H       27.5550    2.9290    7.0670 H       2  LIG2        0.0235
     32    H       27.5760    1.6160    5.9180 H       2  LIG2        0.0235
     33    H       26.1790    2.6540    6.0100 H       2  LIG2        0.0235
     34    H       25.6820    0.7750    4.6630 H       2  LIG2        0.0268
     35    H       25.3750   -0.3450    3.3590 H       2  LIG2        0.0268
     36    H       25.3770    3.1250    3.7290 H       2  LIG2        0.0233
     37    H       24.3940    2.3040    2.5320 H       2  LIG2        0.0233
     38    H       25.6640    3.4010    2.0130 H       2  LIG2        0.0233
     39    H       29.9230   -1.6790    4.5520 H       2  LIG2        0.0257
     40    H       31.5380   -1.1570    4.1050 H       2  LIG2        0.0257
     41    H       30.3770   -1.5750    2.8570 H       2  LIG2        0.0257
     42    H       31.7450    0.9830    3.2020 H       2  LIG2        0.2102
@<TRIPOS>BOND
     1    23     8    1
     2    19     5    1
     3    38    15    1
     4    20     6    1
     5    37    15    1
     6     8    15    1
     7     8     5    1
     8     8    14    1
     9    15    36    1
    10    41    16    1
    11     1    42    1
    12     1     9    1
    13    17     2    1
    14     5     6    1
    15     5     2    1
    16     6     9    1
    17     6    10    1
    18    35    14    1
    19     2     4    1
    20     2     3    1
    21    24    10    1
    22    14    10    1
    23    14    34    1
    24     9    16    1
    25     9    11    1
    26    16    40    1
    27    16    39    1
    28    10    25    1
    29    18     4    1
    30    30    12    1
    31     4     3    1
    32     4     7    1
    33    21     7    1
    34     3    12    1
    35     3    13    1
    36    29    12    1
    37    11     7    1
    38    11    26    1
    39    11    27    1
    40    12    28    1
    41     7    22    1
    42    32    13    1
    43    33    13    1
    44    13    31    1
@<TRIPOS>MOLECULE
11996452_1_run_18.pdb
 42 44 0 0 0
SMALL
GASTEIGER

@<TRIPOS>ATOM
      1    O       28.7660    0.6310    6.6970 O.3     2  LIG2       -0.3886
      2    C       26.1110    1.9620    4.8480 C.3     2  LIG2       -0.0289
      3    C       25.8740    1.6060    3.3880 C.3     2  LIG2       -0.0284
      4    C       26.3000    0.5130    4.3460 C.3     2  LIG2       -0.0319
      5    C       27.1830    2.9320    5.4620 C.3     2  LIG2       -0.0294
      6    C       28.7170    2.7040    5.4430 C.3     2  LIG2       -0.0090
      7    C       27.6210   -0.2800    4.2010 C.3     2  LIG2       -0.0468
      8    C       27.0570    4.4210    5.0450 C.3     2  LIG2       -0.0404
      9    C       29.2900    1.2640    5.5380 C.3     2  LIG2        0.0664
     10    C       29.2900    3.6380    4.3550 C.3     2  LIG2       -0.0471
     11    C       29.0050    0.3810    4.3040 C.3     2  LIG2       -0.0237
     12    C       24.4070    1.5560    2.9190 C.3     2  LIG2       -0.0593
     13    C       26.8000    2.0870    2.2590 C.3     2  LIG2       -0.0593
     14    C       28.1990    4.6750    4.0460 C.3     2  LIG2       -0.0498
     15    C       25.6730    4.8880    4.5500 C.3     2  LIG2       -0.0621
     16    C       30.8180    1.3020    5.7860 C.3     2  LIG2       -0.0358
     17    H       25.1900    2.1210    5.4120 H       2  LIG2        0.0312
     18    H       25.5340   -0.1600    4.7330 H       2  LIG2        0.0309
     19    H       26.9230    2.8930    6.5230 H       2  LIG2        0.0310
     20    H       29.0590    3.1740    6.3710 H       2  LIG2        0.0331
     21    H       27.5870   -1.0880    4.9340 H       2  LIG2        0.0269
     22    H       27.5760   -0.8000    3.2440 H       2  LIG2        0.0269
     23    H       27.2730    5.0250    5.9290 H       2  LIG2        0.0301
     24    H       30.1820    4.1430    4.7300 H       2  LIG2        0.0269
     25    H       29.6070    3.1130    3.4570 H       2  LIG2        0.0269
     26    H       29.7210   -0.4430    4.2950 H       2  LIG2        0.0293
     27    H       29.2540    0.9090    3.3870 H       2  LIG2        0.0293
     28    H       24.2930    0.8930    2.0600 H       2  LIG2        0.0235
     29    H       24.0540    2.5450    2.6250 H       2  LIG2        0.0235
     30    H       23.7350    1.1910    3.6970 H       2  LIG2        0.0235
     31    H       26.7930    1.3810    1.4270 H       2  LIG2        0.0235
     32    H       27.8280    2.2060    2.5640 H       2  LIG2        0.0235
     33    H       26.4720    3.0500    1.8690 H       2  LIG2        0.0235
     34    H       27.8580    4.5860    3.0160 H       2  LIG2        0.0268
     35    H       28.5890    5.6880    4.1550 H       2  LIG2        0.0268
     36    H       25.3880    4.4070    3.6160 H       2  LIG2        0.0233
     37    H       25.6670    5.9640    4.3730 H       2  LIG2        0.0233
     38    H       24.8990    4.6750    5.2870 H       2  LIG2        0.0233
     39    H       31.3490    1.7310    4.9340 H       2  LIG2        0.0257
     40    H       31.2330    0.3060    5.9510 H       2  LIG2        0.0257
     41    H       31.0730    1.9020    6.6610 H       2  LIG2        0.0257
     42    H       27.8080    0.6670    6.6550 H       2  LIG2        0.2102
@<TRIPOS>BOND
     1    31    13    1
     2    33    13    1
     3    28    12    1
     4    13    32    1
     5    13     3    1
     6    29    12    1
     7    12     3    1
     8    12    30    1
     9    34    14    1
    10    22     7    1
    11    27    11    1
    12     3     4    1
    13     3     2    1
    14    25    10    1
    15    36    15    1
    16    14    35    1
    17    14    10    1
    18    14     8    1
    19     7    11    1
    20     7     4    1
    21     7    21    1
    22    26    11    1
    23    11     9    1
    24     4    18    1
    25     4     2    1
    26    10    24    1
    27    10     6    1
    28    37    15    1
    29    15     8    1
    30    15    38    1
    31     2    17    1
    32     2     5    1
    33    39    16    1
    34     8     5    1
    35     8    23    1
    36     6     5    1
    37     6     9    1
    38     6    20    1
    39     5    19    1
    40     9    16    1
    41     9     1    1
    42    16    40    1
    43    16    41    1
    44    42     1    1
@<TRIPOS>MOLECULE
11996452_1_run_12.pdb
 42 44 0 0 0
SMALL
GASTEIGER

@<TRIPOS>ATOM
      1    O       25.2630    1.5890    5.1220 O.3     2  LIG2       -0.3886
      2    C       28.5220    0.3880    5.5340 C.3     2  LIG2       -0.0289
      3    C       29.7340    1.3060    5.5470 C.3     2  LIG2       -0.0284
      4    C       28.4740    1.7530    6.2550 C.3     2  LIG2       -0.0319
      5    C       27.6710   -0.1010    4.3070 C.3     2  LIG2       -0.0294
      6    C       26.7870    0.8040    3.4100 C.3     2  LIG2       -0.0090
      7    C       27.6720    3.0140    5.8550 C.3     2  LIG2       -0.0468
      8    C       28.4300   -0.9690    3.2680 C.3     2  LIG2       -0.0404
      9    C       26.0500    2.0260    4.0240 C.3     2  LIG2        0.0664
     10    C       27.5630    1.0160    2.0920 C.3     2  LIG2       -0.0471
     11    C       26.9840    3.1650    4.4890 C.3     2  LIG2       -0.0237
     12    C       30.9070    0.8890    6.4560 C.3     2  LIG2       -0.0593
     13    C       30.2420    2.0250    4.2850 C.3     2  LIG2       -0.0593
     14    C       28.6590   -0.0600    2.0490 C.3     2  LIG2       -0.0498
     15    C       29.7000   -1.6900    3.7620 C.3     2  LIG2       -0.0621
     16    C       25.0190    2.5990    3.0210 C.3     2  LIG2       -0.0358
     17    H       28.6180   -0.4670    6.2050 H       2  LIG2        0.0312
     18    H       28.4260    1.6430    7.3400 H       2  LIG2        0.0309
     19    H       26.9580   -0.7690    4.7950 H       2  LIG2        0.0310
     20    H       25.9680    0.1430    3.1050 H       2  LIG2        0.0331
     21    H       26.9110    3.1640    6.6240 H       2  LIG2        0.0269
     22    H       28.3370    3.8680    5.9830 H       2  LIG2        0.0269
     23    H       27.7480   -1.7590    2.9470 H       2  LIG2        0.0301
     24    H       26.8920    0.8930    1.2400 H       2  LIG2        0.0269
     25    H       27.9800    2.0160    1.9920 H       2  LIG2        0.0269
     26    H       26.3990    4.0840    4.5580 H       2  LIG2        0.0293
     27    H       27.7050    3.4120    3.7150 H       2  LIG2        0.0293
     28    H       31.4980    1.7560    6.7550 H       2  LIG2        0.0235
     29    H       31.5720    0.1930    5.9450 H       2  LIG2        0.0235
     30    H       30.5690    0.4010    7.3700 H       2  LIG2        0.0235
     31    H       30.7410    2.9590    4.5470 H       2  LIG2        0.0235
     32    H       29.4590    2.2710    3.5840 H       2  LIG2        0.0235
     33    H       30.9640    1.4090    3.7490 H       2  LIG2        0.0235
     34    H       29.6500    0.3930    2.0660 H       2  LIG2        0.0268
     35    H       28.5990   -0.6330    1.1230 H       2  LIG2        0.0268
     36    H       30.4890   -0.9900    4.0340 H       2  LIG2        0.0233
     37    H       30.1020   -2.3430    2.9880 H       2  LIG2        0.0233
     38    H       29.4870   -2.3100    4.6330 H       2  LIG2        0.0233
     39    H       25.5090    3.0150    2.1390 H       2  LIG2        0.0257
     40    H       24.4200    3.4000    3.4600 H       2  LIG2        0.0257
     41    H       24.3220    1.8340    2.6740 H       2  LIG2        0.0257
     42    H       25.8440    1.1900    5.7720 H       2  LIG2        0.2102
@<TRIPOS>BOND
     1    35    14    1
     2    24    10    1
     3    25    10    1
     4    14    34    1
     5    14    10    1
     6    14     8    1
     7    10     6    1
     8    39    16    1
     9    41    16    1
    10    23     8    1
    11    37    15    1
    12    16    40    1
    13    16     9    1
    14    20     6    1
    15     8    15    1
    16     8     5    1
    17     6     9    1
    18     6     5    1
    19    32    13    1
    20    27    11    1
    21    33    13    1
    22    15    36    1
    23    15    38    1
    24     9    11    1
    25     9     1    1
    26    13    31    1
    27    13     3    1
    28     5    19    1
    29     5     2    1
    30    11    26    1
    31    11     7    1
    32     1    42    1
    33     2     3    1
    34     2    17    1
    35     2     4    1
    36     3     4    1
    37     3    12    1
    38     7    22    1
    39     7     4    1
    40     7    21    1
    41    29    12    1
    42     4    18    1
    43    12    28    1
    44    12    30    1
@<TRIPOS>MOLECULE
11996452_1_run_21.pdb
 42 44 0 0 0
SMALL
GASTEIGER

@<TRIPOS>ATOM
      1    O       26.1780    1.5080    1.6030 O.3     2  LIG2       -0.3886
      2    C       28.6380    2.9750    3.6100 C.3     2  LIG2       -0.0289
      3    C       29.2420    2.2630    4.8120 C.3     2  LIG2       -0.0284
      4    C       28.9740    1.4680    3.5510 C.3     2  LIG2       -0.0319
      5    C       27.2350    3.6700    3.4820 C.3     2  LIG2       -0.0294
      6    C       25.8650    2.9440    3.5290 C.3     2  LIG2       -0.0090
      7    C       27.9910    0.2750    3.4890 C.3     2  LIG2       -0.0468
      8    C       27.0040    4.8900    4.4130 C.3     2  LIG2       -0.0404
      9    C       25.7250    1.5100    2.9490 C.3     2  LIG2        0.0664
     10    C       25.2660    3.2190    4.9260 C.3     2  LIG2       -0.0471
     11    C       26.4830    0.4240    3.7420 C.3     2  LIG2       -0.0237
     12    C       30.7230    2.5620    5.1190 C.3     2  LIG2       -0.0593
     13    C       28.4510    2.0050    6.1050 C.3     2  LIG2       -0.0593
     14    C       26.0500    4.4020    5.5160 C.3     2  LIG2       -0.0498
     15    C       28.2620    5.6080    4.9410 C.3     2  LIG2       -0.0621
     16    C       24.2320    1.1090    2.8480 C.3     2  LIG2       -0.0358
     17    H       29.3490    3.6110    3.0790 H       2  LIG2        0.0312
     18    H       29.8140    1.2600    2.8860 H       2  LIG2        0.0309
     19    H       27.2880    4.0700    2.4670 H       2  LIG2        0.0310
     20    H       25.2310    3.5460    2.8710 H       2  LIG2        0.0331
     21    H       28.1160   -0.1870    2.5080 H       2  LIG2        0.0269
     22    H       28.3670   -0.4820    4.1780 H       2  LIG2        0.0269
     23    H       26.4580    5.6390    3.8340 H       2  LIG2        0.0301
     24    H       24.2120    3.4850    4.8330 H       2  LIG2        0.0269
     25    H       25.2910    2.3540    5.5860 H       2  LIG2        0.0269
     26    H       26.0500   -0.5480    3.4970 H       2  LIG2        0.0293
     27    H       26.2730    0.5060    4.8050 H       2  LIG2        0.0293
     28    H       31.1850    1.7340    5.6580 H       2  LIG2        0.0235
     29    H       30.8240    3.4570    5.7310 H       2  LIG2        0.0235
     30    H       31.3090    2.7210    4.2130 H       2  LIG2        0.0235
     31    H       28.8190    1.1120    6.6110 H       2  LIG2        0.0235
     32    H       27.3930    1.8630    5.9420 H       2  LIG2        0.0235
     33    H       28.5550    2.8390    6.7990 H       2  LIG2        0.0235
     34    H       26.5930    4.1010    6.4110 H       2  LIG2        0.0268
     35    H       25.3710    5.2000    5.8210 H       2  LIG2        0.0268
     36    H       28.8460    4.9740    5.6050 H       2  LIG2        0.0233
     37    H       27.9910    6.5010    5.5040 H       2  LIG2        0.0233
     38    H       28.9090    5.9220    4.1220 H       2  LIG2        0.0233
     39    H       23.7740    1.0290    3.8350 H       2  LIG2        0.0257
     40    H       24.0990    0.1430    2.3550 H       2  LIG2        0.0257
     41    H       23.6530    1.8390    2.2790 H       2  LIG2        0.0257
     42    H       27.0900    1.8030    1.5890 H       2  LIG2        0.2102
@<TRIPOS>BOND
     1    42     1    1
     2     1     9    1
     3    41    16    1
     4    40    16    1
     5    19     5    1
     6    21     7    1
     7    16     9    1
     8    16    39    1
     9    20     6    1
    10    18     4    1
    11     9     6    1
    12     9    11    1
    13    17     2    1
    14     5     6    1
    15     5     2    1
    16     5     8    1
    17     7     4    1
    18     7    11    1
    19     7    22    1
    20    26    11    1
    21     6    10    1
    22     4     2    1
    23     4     3    1
    24     2     3    1
    25    11    27    1
    26    23     8    1
    27    38    15    1
    28    30    12    1
    29     8    15    1
    30     8    14    1
    31     3    12    1
    32     3    13    1
    33    24    10    1
    34    10    14    1
    35    10    25    1
    36    15    37    1
    37    15    36    1
    38    12    28    1
    39    12    29    1
    40    14    35    1
    41    14    34    1
    42    32    13    1
    43    13    31    1
    44    13    33    1
@<TRIPOS>MOLECULE
11996452_1_run_12.pdb
 42 44 0 0 0
SMALL
GASTEIGER

@<TRIPOS>ATOM
      1    O       26.6020   -0.7800    5.6050 O.3     2  LIG2       -0.3886
      2    C       27.5940    2.5710    5.4760 C.3     2  LIG2       -0.0289
      3    C       27.0750    3.5360    4.4200 C.3     2  LIG2       -0.0284
      4    C       26.1120    2.5450    5.0390 C.3     2  LIG2       -0.0319
      5    C       28.6770    1.4430    5.3300 C.3     2  LIG2       -0.0294
      6    C       28.5270    0.1590    4.4720 C.3     2  LIG2       -0.0090
      7    C       25.3770    1.4510    4.2300 C.3     2  LIG2       -0.0468
      8    C       30.1060    1.9270    4.9660 C.3     2  LIG2       -0.0404
      9    C       27.1360   -0.5130    4.3160 C.3     2  LIG2        0.0664
     10    C       29.3700    0.3780    3.1970 C.3     2  LIG2       -0.0471
     11    C       26.1150    0.3140    3.5050 C.3     2  LIG2       -0.0237
     12    C       26.9020    5.0050    4.8510 C.3     2  LIG2       -0.0593
     13    C       27.4820    3.4390    2.9400 C.3     2  LIG2       -0.0593
     14    C       30.3120    1.5560    3.4880 C.3     2  LIG2       -0.0498
     15    C       30.4470    3.3930    5.3000 C.3     2  LIG2       -0.0621
     16    C       27.2780   -1.9120    3.6670 C.3     2  LIG2       -0.0358
     17    H       27.7640    3.0410    6.4460 H       2  LIG2        0.0312
     18    H       25.4460    2.9000    5.8270 H       2  LIG2        0.0309
     19    H       28.7360    1.0710    6.3550 H       2  LIG2        0.0310
     20    H       29.1080   -0.5880    5.0220 H       2  LIG2        0.0331
     21    H       24.6490    0.9940    4.9040 H       2  LIG2        0.0269
     22    H       24.7570    1.9620    3.4930 H       2  LIG2        0.0269
     23    H       30.8090    1.3220    5.5430 H       2  LIG2        0.0301
     24    H       29.9560   -0.5170    2.9800 H       2  LIG2        0.0269
     25    H       28.7700    0.5560    2.3070 H       2  LIG2        0.0269
     26    H       25.3320   -0.3580    3.1470 H       2  LIG2        0.0293
     27    H       26.5550    0.6650    2.5760 H       2  LIG2        0.0293
     28    H       26.1480    5.5050    4.2430 H       2  LIG2        0.0235
     29    H       27.8350    5.5590    4.7470 H       2  LIG2        0.0235
     30    H       26.5870    5.0970    5.8910 H       2  LIG2        0.0235
     31    H       26.6930    3.8310    2.2960 H       2  LIG2        0.0235
     32    H       27.6850    2.4300    2.6130 H       2  LIG2        0.0235
     33    H       28.3810    4.0220    2.7430 H       2  LIG2        0.0235
     34    H       30.0970    2.3970    2.8300 H       2  LIG2        0.0268
     35    H       31.3490    1.2750    3.3010 H       2  LIG2        0.0268
     36    H       29.8560    4.0950    4.7140 H       2  LIG2        0.0233
     37    H       31.4960    3.6040    5.0940 H       2  LIG2        0.0233
     38    H       30.2730    3.6080    6.3550 H       2  LIG2        0.0233
     39    H       27.6410   -1.8400    2.6410 H       2  LIG2        0.0257
     40    H       26.3270   -2.4470    3.6320 H       2  LIG2        0.0257
     41    H       27.9790   -2.5440    4.2150 H       2  LIG2        0.0257
     42    H       26.4920    0.0540    6.0670 H       2  LIG2        0.2102
@<TRIPOS>BOND
     1    31    13    1
     2    25    10    1
     3    27    11    1
     4    32    13    1
     5    39    16    1
     6    33    13    1
     7    34    14    1
     8    13     3    1
     9    24    10    1
    10    26    11    1
    11    10    14    1
    12    10     6    1
    13    35    14    1
    14    14     8    1
    15    22     7    1
    16    11     7    1
    17    11     9    1
    18    40    16    1
    19    16    41    1
    20    16     9    1
    21     7    21    1
    22     7     4    1
    23    28    12    1
    24     9     6    1
    25     9     1    1
    26     3    12    1
    27     3     4    1
    28     3     2    1
    29     6    20    1
    30     6     5    1
    31    36    15    1
    32    29    12    1
    33    12    30    1
    34     8    15    1
    35     8     5    1
    36     8    23    1
    37     4     2    1
    38     4    18    1
    39    37    15    1
    40    15    38    1
    41     5     2    1
    42     5    19    1
    43     2    17    1
    44     1    42    1
@<TRIPOS>MOLECULE
11996452_1_run_9.pdb
 42 44 0 0 0
SMALL
GASTEIGER

@<TRIPOS>ATOM
      1    O       31.1880    2.3930    4.1330 O.3     2  LIG2       -0.3886
      2    C       28.1290    1.0640    3.0800 C.3     2  LIG2       -0.0289
      3    C       26.7950    1.6970    3.4460 C.3     2  LIG2       -0.0284
      4    C       27.9540    2.5990    3.0770 C.3     2  LIG2       -0.0319
      5    C       29.0810    0.1890    3.9740 C.3     2  LIG2       -0.0294
      6    C       29.8520    0.6910    5.2230 C.3     2  LIG2       -0.0090
      7    C       28.5740    3.6300    4.0490 C.3     2  LIG2       -0.0468
      8    C       28.4910   -1.1610    4.4600 C.3     2  LIG2       -0.0404
      9    C       30.3810    2.1510    5.2760 C.3     2  LIG2        0.0664
     10    C       29.0950    0.1530    6.4560 C.3     2  LIG2       -0.0471
     11    C       29.2760    3.2270    5.3550 C.3     2  LIG2       -0.0237
     12    C       25.6680    1.5850    2.4010 C.3     2  LIG2       -0.0593
     13    C       26.2280    1.6650    4.8750 C.3     2  LIG2       -0.0593
     14    C       28.1710   -0.9660    5.9510 C.3     2  LIG2       -0.0498
     15    C       27.3260   -1.7450    3.6370 C.3     2  LIG2       -0.0621
     16    C       31.3480    2.3350    6.4710 C.3     2  LIG2       -0.0358
     17    H       28.1380    0.6150    2.0850 H       2  LIG2        0.0312
     18    H       27.9820    3.0130    2.0680 H       2  LIG2        0.0309
     19    H       29.8680   -0.0640    3.2600 H       2  LIG2        0.0310
     20    H       30.7670    0.0910    5.2190 H       2  LIG2        0.0331
     21    H       29.2790    4.2280    3.4680 H       2  LIG2        0.0269
     22    H       27.7870    4.3400    4.3040 H       2  LIG2        0.0269
     23    H       29.2920   -1.9020    4.4040 H       2  LIG2        0.0301
     24    H       29.8040   -0.2540    7.1800 H       2  LIG2        0.0269
     25    H       28.5390    0.9190    6.9920 H       2  LIG2        0.0269
     26    H       29.7170    4.1470    5.7440 H       2  LIG2        0.0293
     27    H       28.5510    2.9780    6.1260 H       2  LIG2        0.0293
     28    H       24.9470    2.3960    2.5150 H       2  LIG2        0.0235
     29    H       25.1290    0.6440    2.5030 H       2  LIG2        0.0235
     30    H       26.0450    1.6330    1.3790 H       2  LIG2        0.0235
     31    H       25.5890    2.5300    5.0560 H       2  LIG2        0.0235
     32    H       26.9890    1.6680    5.6410 H       2  LIG2        0.0235
     33    H       25.6220    0.7740    5.0350 H       2  LIG2        0.0235
     34    H       27.1240   -0.7060    6.1060 H       2  LIG2        0.0268
     35    H       28.3430   -1.8890    6.5070 H       2  LIG2        0.0268
     36    H       26.4350   -1.1220    3.6890 H       2  LIG2        0.0233
     37    H       27.0490   -2.7340    4.0030 H       2  LIG2        0.0233
     38    H       27.5990   -1.8520    2.5870 H       2  LIG2        0.0233
     39    H       30.8300    2.2170    7.4240 H       2  LIG2        0.0257
     40    H       31.8090    3.3250    6.4770 H       2  LIG2        0.0257
     41    H       32.1600    1.6060    6.4510 H       2  LIG2        0.0257
     42    H       31.8810    1.7300    4.1050 H       2  LIG2        0.2102
@<TRIPOS>BOND
     1    30    12    1
     2    18     4    1
     3    17     2    1
     4    12    29    1
     5    12    28    1
     6    12     3    1
     7    38    15    1
     8     4     2    1
     9     4     3    1
    10     4     7    1
    11     2     3    1
    12     2     5    1
    13    19     5    1
    14     3    13    1
    15    21     7    1
    16    15    36    1
    17    15    37    1
    18    15     8    1
    19     5     8    1
    20     5     6    1
    21     7    22    1
    22     7    11    1
    23    42     1    1
    24     1     9    1
    25    23     8    1
    26     8    14    1
    27    13    33    1
    28    13    31    1
    29    13    32    1
    30    20     6    1
    31     6     9    1
    32     6    10    1
    33     9    11    1
    34     9    16    1
    35    11    26    1
    36    11    27    1
    37    14    34    1
    38    14    10    1
    39    14    35    1
    40    41    16    1
    41    10    25    1
    42    10    24    1
    43    16    40    1
    44    16    39    1
@<TRIPOS>MOLECULE
11996452_1_run_5.pdb
 42 44 0 0 0
SMALL
GASTEIGER

@<TRIPOS>ATOM
      1    O       28.8560    1.7520    2.4220 O.3     2  LIG2       -0.3886
      2    C       26.9800    4.3930    3.7430 C.3     2  LIG2       -0.0289
      3    C       27.0800    4.8150    5.2010 C.3     2  LIG2       -0.0284
      4    C       28.3460    4.4340    4.4640 C.3     2  LIG2       -0.0319
      5    C       26.2360    3.1540    3.1270 C.3     2  LIG2       -0.0294
      6    C       26.6220    1.6690    3.3570 C.3     2  LIG2       -0.0090
      7    C       29.2450    3.2420    4.8710 C.3     2  LIG2       -0.0468
      8    C       24.6960    3.1360    3.3130 C.3     2  LIG2       -0.0404
      9    C       28.1130    1.2710    3.5330 C.3     2  LIG2        0.0664
     10    C       25.5980    1.0960    4.3610 C.3     2  LIG2       -0.0471
     11    C       28.7600    1.7840    4.8370 C.3     2  LIG2       -0.0237
     12    C       26.9000    6.3170    5.5000 C.3     2  LIG2       -0.0593
     13    C       26.5340    3.9540    6.3520 C.3     2  LIG2       -0.0593
     14    C       24.4160    2.0760    4.3920 C.3     2  LIG2       -0.0498
     15    C       24.0130    4.4940    3.5730 C.3     2  LIG2       -0.0621
     16    C       28.2770   -0.2670    3.4610 C.3     2  LIG2       -0.0358
     17    H       26.8120    5.2270    3.0600 H       2  LIG2        0.0312
     18    H       28.9850    5.2360    4.0880 H       2  LIG2        0.0309
     19    H       26.4100    3.3110    2.0600 H       2  LIG2        0.0310
     20    H       26.3400    1.1810    2.4180 H       2  LIG2        0.0331
     21    H       30.1480    3.3020    4.2600 H       2  LIG2        0.0269
     22    H       29.6040    3.4450    5.8800 H       2  LIG2        0.0269
     23    H       24.2620    2.7610    2.3830 H       2  LIG2        0.0301
     24    H       25.2560    0.1160    4.0250 H       2  LIG2        0.0269
     25    H       26.0110    0.9360    5.3550 H       2  LIG2        0.0269
     26    H       29.6450    1.1790    5.0450 H       2  LIG2        0.0293
     27    H       28.1280    1.5640    5.6930 H       2  LIG2        0.0293
     28    H       27.4070    6.5950    6.4240 H       2  LIG2        0.0235
     29    H       25.8460    6.5720    5.6080 H       2  LIG2        0.0235
     30    H       27.3050    6.9470    4.7080 H       2  LIG2        0.0235
     31    H       27.0990    4.1290    7.2680 H       2  LIG2        0.0235
     32    H       26.5740    2.8930    6.1540 H       2  LIG2        0.0235
     33    H       25.4920    4.1970    6.5610 H       2  LIG2        0.0235
     34    H       24.3090    2.5260    5.3780 H       2  LIG2        0.0268
     35    H       23.4790    1.5560    4.1870 H       2  LIG2        0.0268
     36    H       24.3120    4.9270    4.5260 H       2  LIG2        0.0233
     37    H       22.9290    4.3850    3.5940 H       2  LIG2        0.0233
     38    H       24.2530    5.2120    2.7880 H       2  LIG2        0.0233
     39    H       27.7820   -0.7600    4.3000 H       2  LIG2        0.0257
     40    H       29.3260   -0.5700    3.4870 H       2  LIG2        0.0257
     41    H       27.8490   -0.6790    2.5460 H       2  LIG2        0.0257
     42    H       29.7810    1.5380    2.5600 H       2  LIG2        0.2102
@<TRIPOS>BOND
     1    19     5    1
     2    23     8    1
     3    20     6    1
     4     1    42    1
     5     1     9    1
     6    41    16    1
     7    38    15    1
     8    17     2    1
     9     5     8    1
    10     5     6    1
    11     5     2    1
    12     8    15    1
    13     8    14    1
    14     6     9    1
    15     6    10    1
    16    16    40    1
    17    16     9    1
    18    16    39    1
    19     9    11    1
    20    15    37    1
    21    15    36    1
    22     2     4    1
    23     2     3    1
    24    24    10    1
    25    18     4    1
    26    35    14    1
    27    21     7    1
    28    10    14    1
    29    10    25    1
    30    14    34    1
    31     4     7    1
    32     4     3    1
    33    30    12    1
    34    11     7    1
    35    11    26    1
    36    11    27    1
    37     7    22    1
    38     3    12    1
    39     3    13    1
    40    12    29    1
    41    12    28    1
    42    32    13    1
    43    13    33    1
    44    13    31    1
@<TRIPOS>MOLECULE
11996452_1_run_2.pdb
 42 44 0 0 0
SMALL
GASTEIGER

@<TRIPOS>ATOM
      1    O       27.6430    6.2910    5.9300 O.3     2  LIG2       -0.3886
      2    C       26.4630    3.0720    5.2370 C.3     2  LIG2       -0.0289
      3    C       26.8120    2.3340    3.9530 C.3     2  LIG2       -0.0284
      4    C       27.8880    3.1430    4.6460 C.3     2  LIG2       -0.0319
      5    C       25.4330    4.2390    5.4510 C.3     2  LIG2       -0.0294
      6    C       25.5600    5.6680    4.8610 C.3     2  LIG2       -0.0090
      7    C       28.5910    4.3590    3.9960 C.3     2  LIG2       -0.0468
      8    C       23.9490    3.8850    5.1650 C.3     2  LIG2       -0.0404
      9    C       26.9600    6.3150    4.6850 C.3     2  LIG2        0.0664
     10    C       24.5740    5.7460    3.6750 C.3     2  LIG2       -0.0471
     11    C       27.8420    5.6440    3.6090 C.3     2  LIG2       -0.0237
     12    C       26.9510    0.8010    4.0540 C.3     2  LIG2       -0.0593
     13    C       26.2550    2.7490    2.5820 C.3     2  LIG2       -0.0593
     14    C       23.6070    4.5620    3.8270 C.3     2  LIG2       -0.0498
     15    C       23.5670    2.3930    5.2300 C.3     2  LIG2       -0.0621
     16    C       26.8260    7.8220    4.3550 C.3     2  LIG2       -0.0358
     17    H       26.3730    2.4160    6.1050 H       2  LIG2        0.0312
     18    H       28.6150    2.6120    5.2620 H       2  LIG2        0.0309
     19    H       25.5040    4.3900    6.5300 H       2  LIG2        0.0310
     20    H       25.0820    6.3020    5.6150 H       2  LIG2        0.0331
     21    H       29.4100    4.6430    4.6600 H       2  LIG2        0.0269
     22    H       29.0990    3.9930    3.1040 H       2  LIG2        0.0269
     23    H       23.3460    4.3780    5.9310 H       2  LIG2        0.0301
     24    H       24.0170    6.6840    3.7140 H       2  LIG2        0.0269
     25    H       25.0640    5.7390    2.7030 H       2  LIG2        0.0269
     26    H       28.6170    6.3520    3.3070 H       2  LIG2        0.0293
     27    H       27.2860    5.5080    2.6860 H       2  LIG2        0.0293
     28    H       27.6070    0.4160    3.2730 H       2  LIG2        0.0235
     29    H       25.9840    0.3110    3.9480 H       2  LIG2        0.0235
     30    H       27.3700    0.4860    5.0100 H       2  LIG2        0.0235
     31    H       26.9480    2.4760    1.7850 H       2  LIG2        0.0235
     32    H       26.0730    3.8090    2.4930 H       2  LIG2        0.0235
     33    H       25.3100    2.2470    2.3760 H       2  LIG2        0.0235
     34    H       23.7030    3.8710    2.9910 H       2  LIG2        0.0268
     35    H       22.5720    4.9080    3.8230 H       2  LIG2        0.0268
     36    H       24.0530    1.8110    4.4490 H       2  LIG2        0.0233
     37    H       22.4920    2.2620    5.1090 H       2  LIG2        0.0233
     38    H       23.8420    1.9580    6.1920 H       2  LIG2        0.0233
     39    H       26.3500    7.9760    3.3850 H       2  LIG2        0.0257
     40    H       27.7950    8.3230    4.3190 H       2  LIG2        0.0257
     41    H       26.2230    8.3470    5.0980 H       2  LIG2        0.0257
     42    H       27.1070    6.7530    6.5780 H       2  LIG2        0.2102
@<TRIPOS>BOND
     1    31    13    1
     2    33    13    1
     3    32    13    1
     4    13     3    1
     5    27    11    1
     6    25    10    1
     7    34    14    1
     8    22     7    1
     9    28    12    1
    10    26    11    1
    11    39    16    1
    12    11     7    1
    13    11     9    1
    14    10    24    1
    15    10    14    1
    16    10     6    1
    17    35    14    1
    18    14     8    1
    19    29    12    1
    20     3    12    1
    21     3     4    1
    22     3     2    1
    23     7     4    1
    24     7    21    1
    25    12    30    1
    26    40    16    1
    27    16     9    1
    28    16    41    1
    29    36    15    1
    30     4     2    1
    31     4    18    1
    32     9     6    1
    33     9     1    1
    34     6     5    1
    35     6    20    1
    36    37    15    1
    37     8    15    1
    38     8     5    1
    39     8    23    1
    40    15    38    1
    41     2     5    1
    42     2    17    1
    43     5    19    1
    44     1    42    1
@<TRIPOS>MOLECULE
11996452_1_run_11.pdb
 42 44 0 0 0
SMALL
GASTEIGER

@<TRIPOS>ATOM
      1    O       26.9170    4.7240    5.8370 O.3     2  LIG2       -0.3886
      2    C       28.2310    1.5000    5.4940 C.3     2  LIG2       -0.0289
      3    C       29.5260    1.2230    4.7450 C.3     2  LIG2       -0.0284
      4    C       29.4450    2.4460    5.6330 C.3     2  LIG2       -0.0319
      5    C       26.8060    1.8160    4.9120 C.3     2  LIG2       -0.0294
      6    C       26.4230    3.0910    4.1160 C.3     2  LIG2       -0.0090
      7    C       29.5900    3.8930    5.1050 C.3     2  LIG2       -0.0468
      8    C       26.1610    0.6840    4.0700 C.3     2  LIG2       -0.0404
      9    C       27.0950    4.4500    4.4550 C.3     2  LIG2        0.0664
     10    C       26.3400    2.6770    2.6310 C.3     2  LIG2       -0.0471
     11    C       28.5980    4.5210    4.1120 C.3     2  LIG2       -0.0237
     12    C       30.3940    0.0630    5.2720 C.3     2  LIG2       -0.0593
     13    C       29.6410    1.3480    3.2170 C.3     2  LIG2       -0.0593
     14    C       26.2590    1.1430    2.6050 C.3     2  LIG2       -0.0498
     15    C       26.6790   -0.7470    4.3170 C.3     2  LIG2       -0.0621
     16    C       26.3610    5.6110    3.7400 C.3     2  LIG2       -0.0358
     17    H       28.0770    0.8450    6.3530 H       2  LIG2        0.0312
     18    H       29.8960    2.3930    6.6250 H       2  LIG2        0.0309
     19    H       26.2140    1.8860    5.8270 H       2  LIG2        0.0310
     20    H       25.3740    3.2550    4.3820 H       2  LIG2        0.0331
     21    H       29.6370    4.5460    5.9790 H       2  LIG2        0.0269
     22    H       30.5860    3.9750    4.6710 H       2  LIG2        0.0269
     23    H       25.0980    0.6600    4.3210 H       2  LIG2        0.0301
     24    H       25.4430    3.1010    2.1760 H       2  LIG2        0.0269
     25    H       27.1720    3.0430    2.0320 H       2  LIG2        0.0269
     26    H       28.8870    5.5720    4.0390 H       2  LIG2        0.0293
     27    H       28.7810    4.1640    3.1020 H       2  LIG2        0.0293
     28    H       31.4420    0.2060    5.0060 H       2  LIG2        0.0235
     29    H       30.0710   -0.8910    4.8550 H       2  LIG2        0.0235
     30    H       30.3480   -0.0270    6.3580 H       2  LIG2        0.0235
     31    H       30.6600    1.6040    2.9260 H       2  LIG2        0.0235
     32    H       28.9930    2.1020    2.7950 H       2  LIG2        0.0235
     33    H       29.3900    0.4060    2.7280 H       2  LIG2        0.0235
     34    H       27.1290    0.7160    2.1080 H       2  LIG2        0.0268
     35    H       25.3870    0.8130    2.0380 H       2  LIG2        0.0268
     36    H       27.7200   -0.8620    4.0190 H       2  LIG2        0.0233
     37    H       26.0990   -1.4740    3.7480 H       2  LIG2        0.0233
     38    H       26.5990   -1.0180    5.3690 H       2  LIG2        0.0233
     39    H       26.4640    5.5400    2.6560 H       2  LIG2        0.0257
     40    H       26.7520    6.5870    4.0350 H       2  LIG2        0.0257
     41    H       25.2930    5.6160    3.9650 H       2  LIG2        0.0257
     42    H       27.2540    3.9790    6.3400 H       2  LIG2        0.2102
@<TRIPOS>BOND
     1    25    10    1
     2    35    14    1
     3    34    14    1
     4    24    10    1
     5    14    10    1
     6    14     8    1
     7    10     6    1
     8    39    16    1
     9    33    13    1
    10    32    13    1
    11    31    13    1
    12    27    11    1
    13    13     3    1
    14    16    41    1
    15    16    40    1
    16    16     9    1
    17    37    15    1
    18    36    15    1
    19    26    11    1
    20     8    15    1
    21     8    23    1
    22     8     5    1
    23    11     9    1
    24    11     7    1
    25     6    20    1
    26     6     9    1
    27     6     5    1
    28    15    38    1
    29     9     1    1
    30    22     7    1
    31     3    12    1
    32     3     2    1
    33     3     4    1
    34    29    12    1
    35     5     2    1
    36     5    19    1
    37    28    12    1
    38     7     4    1
    39     7    21    1
    40    12    30    1
    41     2     4    1
    42     2    17    1
    43     4    18    1
    44     1    42    1
@<TRIPOS>MOLECULE
11996452_1_run_5.pdb
 42 44 0 0 0
SMALL
GASTEIGER

@<TRIPOS>ATOM
      1    O       28.0510    3.9840    2.1820 O.3     2  LIG2       -0.3886
      2    C       28.7660    0.7000    3.1470 C.3     2  LIG2       -0.0289
      3    C       27.7010   -0.2410    3.6900 C.3     2  LIG2       -0.0284
      4    C       27.3500    0.6670    2.5310 C.3     2  LIG2       -0.0319
      5    C       29.4900    1.8900    3.8740 C.3     2  LIG2       -0.0294
      6    C       28.8090    3.2010    4.3460 C.3     2  LIG2       -0.0090
      7    C       26.2540    1.7570    2.6040 C.3     2  LIG2       -0.0468
      8    C       30.3570    1.4990    5.1010 C.3     2  LIG2       -0.0404
      9    C       27.6350    3.8050    3.5270 C.3     2  LIG2        0.0664
     10    C       28.6380    3.0870    5.8760 C.3     2  LIG2       -0.0471
     11    C       26.3410    2.9630    3.5520 C.3     2  LIG2       -0.0237
     12    C       27.8620   -1.7370    3.3500 C.3     2  LIG2       -0.0593
     13    C       27.0610   -0.0560    5.0760 C.3     2  LIG2       -0.0593
     14    C       29.5610    1.9480    6.3370 C.3     2  LIG2       -0.0498
     15    C       30.8490    0.0400    5.1650 C.3     2  LIG2       -0.0621
     16    C       27.3110    5.2380    4.0180 C.3     2  LIG2       -0.0358
     17    H       29.5250    0.1960    2.5460 H       2  LIG2        0.0312
     18    H       27.3490    0.2420    1.5260 H       2  LIG2        0.0309
     19    H       30.1890    2.2170    3.1020 H       2  LIG2        0.0310
     20    H       29.5990    3.9520    4.2450 H       2  LIG2        0.0331
     21    H       26.1240    2.1430    1.5910 H       2  LIG2        0.0269
     22    H       25.3120    1.2470    2.8060 H       2  LIG2        0.0269
     23    H       31.2590    2.1140    5.0670 H       2  LIG2        0.0301
     24    H       28.9380    4.0200    6.3550 H       2  LIG2        0.0269
     25    H       27.6090    2.9170    6.1850 H       2  LIG2        0.0269
     26    H       25.5030    3.6080    3.2780 H       2  LIG2        0.0293
     27    H       26.0860    2.6780    4.5690 H       2  LIG2        0.0293
     28    H       26.8990   -2.2480    3.3680 H       2  LIG2        0.0235
     29    H       28.5160   -2.2340    4.0660 H       2  LIG2        0.0235
     30    H       28.2900   -1.8920    2.3590 H       2  LIG2        0.0235
     31    H       26.0480   -0.4590    5.0900 H       2  LIG2        0.0235
     32    H       26.9950    0.9760    5.3860 H       2  LIG2        0.0235
     33    H       27.6310   -0.5810    5.8420 H       2  LIG2        0.0235
     34    H       28.9830    1.1270    6.7620 H       2  LIG2        0.0268
     35    H       30.2320    2.2910    7.1250 H       2  LIG2        0.0268
     36    H       30.0280   -0.6650    5.2840 H       2  LIG2        0.0233
     37    H       31.5230   -0.1060    6.0090 H       2  LIG2        0.0233
     38    H       31.3960   -0.2320    4.2610 H       2  LIG2        0.0233
     39    H       26.9310    5.2320    5.0410 H       2  LIG2        0.0257
     40    H       26.5530    5.7230    3.3990 H       2  LIG2        0.0257
     41    H       28.1930    5.8810    4.0040 H       2  LIG2        0.0257
     42    H       28.8450    4.5230    2.1780 H       2  LIG2        0.2102
@<TRIPOS>BOND
     1    18     4    1
     2    21     7    1
     3    42     1    1
     4     1     9    1
     5    30    12    1
     6     4     7    1
     7     4     2    1
     8     4     3    1
     9    17     2    1
    10     7    22    1
    11     7    11    1
    12    19     5    1
    13     2     3    1
    14     2     5    1
    15    26    11    1
    16    12    28    1
    17    12     3    1
    18    12    29    1
    19    40    16    1
    20     9    11    1
    21     9    16    1
    22     9     6    1
    23    11    27    1
    24     3    13    1
    25     5     6    1
    26     5     8    1
    27    41    16    1
    28    16    39    1
    29    20     6    1
    30    38    15    1
    31     6    10    1
    32    23     8    1
    33    13    31    1
    34    13    32    1
    35    13    33    1
    36     8    15    1
    37     8    14    1
    38    15    36    1
    39    15    37    1
    40    10    25    1
    41    10    14    1
    42    10    24    1
    43    14    34    1
    44    14    35    1
