@<TRIPOS>MOLECULE
11996452_3_run_7.pdb
 42 44 0 0 0
SMALL
GASTEIGER

@<TRIPOS>ATOM
      1    O       27.0910   -1.2280    3.6480 O.3     2  LIG2       -0.3886
      2    C       27.5170    2.9900    5.3500 C.3     2  LIG2       -0.0289
      3    C       27.2710    4.3340    4.6850 C.3     2  LIG2       -0.0284
      4    C       26.3140    3.1920    4.4200 C.3     2  LIG2       -0.0319
      5    C       28.6500    2.0200    4.9250 C.3     2  LIG2       -0.0294
      6    C       28.1890    0.5440    4.8390 C.3     2  LIG2       -0.0090
      7    C       26.2380    2.4250    3.0830 C.3     2  LIG2       -0.0468
      8    C       29.8520    2.0500    5.9070 C.3     2  LIG2       -0.0404
      9    C       27.4730    0.1300    3.5050 C.3     2  LIG2        0.0664
     10    C       29.4590   -0.2600    5.1820 C.3     2  LIG2       -0.0471
     11    C       26.1410    0.8930    3.2520 C.3     2  LIG2       -0.0237
     12    C       26.7630    5.4670    5.5970 C.3     2  LIG2       -0.0593
     13    C       28.2070    4.8720    3.5780 C.3     2  LIG2       -0.0593
     14    C       30.2170    0.5850    6.2010 C.3     2  LIG2       -0.0498
     15    C       31.0370    2.8960    5.4090 C.3     2  LIG2       -0.0621
     16    C       28.3650    0.1750    2.2370 C.3     2  LIG2       -0.0358
     17    H       27.2810    2.8930    6.4100 H       2  LIG2        0.0312
     18    H       25.3230    3.2960    4.8650 H       2  LIG2        0.0309
     19    H       29.0300    2.2860    3.9430 H       2  LIG2        0.0310
     20    H       27.4840    0.3680    5.6570 H       2  LIG2        0.0331
     21    H       25.3360    2.7610    2.5700 H       2  LIG2        0.0269
     22    H       27.0530    2.6760    2.4090 H       2  LIG2        0.0269
     23    H       29.5300    2.4830    6.8560 H       2  LIG2        0.0301
     24    H       29.2220   -1.2450    5.5830 H       2  LIG2        0.0269
     25    H       30.0880   -0.4130    4.3050 H       2  LIG2        0.0269
     26    H       25.4410    0.6920    4.0650 H       2  LIG2        0.0293
     27    H       25.6640    0.4900    2.3550 H       2  LIG2        0.0293
     28    H       26.2040    6.2070    5.0250 H       2  LIG2        0.0235
     29    H       27.5940    5.9780    6.0860 H       2  LIG2        0.0235
     30    H       26.1030    5.0980    6.3820 H       2  LIG2        0.0235
     31    H       27.6830    5.5970    2.9540 H       2  LIG2        0.0235
     32    H       28.6000    4.1110    2.9090 H       2  LIG2        0.0235
     33    H       29.0670    5.3800    4.0160 H       2  LIG2        0.0235
     34    H       31.2920    0.3970    6.1440 H       2  LIG2        0.0268
     35    H       29.9050    0.3180    7.2120 H       2  LIG2        0.0268
     36    H       31.4370    2.5100    4.4710 H       2  LIG2        0.0233
     37    H       31.8500    2.9020    6.1370 H       2  LIG2        0.0233
     38    H       30.7380    3.9310    5.2430 H       2  LIG2        0.0233
     39    H       28.7750    1.1660    2.0500 H       2  LIG2        0.0257
     40    H       27.8030   -0.1070    1.3460 H       2  LIG2        0.0257
     41    H       29.2070   -0.5140    2.2950 H       2  LIG2        0.0257
     42    H       26.6810   -1.5160    2.8290 H       2  LIG2        0.2102
@<TRIPOS>BOND
     1    40    16    1
     2    39    16    1
     3    16    41    1
     4    16     9    1
     5    27    11    1
     6    22     7    1
     7    21     7    1
     8    42     1    1
     9    32    13    1
    10    31    13    1
    11     7    11    1
    12     7     4    1
    13    11     9    1
    14    11    26    1
    15     9     1    1
    16     9     6    1
    17    13    33    1
    18    13     3    1
    19    19     5    1
    20    25    10    1
    21     4     3    1
    22     4    18    1
    23     4     2    1
    24    36    15    1
    25     3     2    1
    26     3    12    1
    27     6     5    1
    28     6    10    1
    29     6    20    1
    30     5     2    1
    31     5     8    1
    32    28    12    1
    33    10    24    1
    34    10    14    1
    35    38    15    1
    36     2    17    1
    37    15     8    1
    38    15    37    1
    39    12    29    1
    40    12    30    1
    41     8    14    1
    42     8    23    1
    43    34    14    1
    44    14    35    1
@<TRIPOS>MOLECULE
11996452_3_run_7.pdb
 42 44 0 0 0
SMALL
GASTEIGER

@<TRIPOS>ATOM
      1    O       23.0990    3.6430    3.3230 O.3     2  LIG2       -0.3886
      2    C       27.6480    3.2710    3.5350 C.3     2  LIG2       -0.0289
      3    C       28.5050    2.2490    4.2630 C.3     2  LIG2       -0.0284
      4    C       27.2520    1.7890    3.5490 C.3     2  LIG2       -0.0319
      5    C       26.7470    4.3030    4.2590 C.3     2  LIG2       -0.0294
      6    C       25.3430    4.4450    3.6190 C.3     2  LIG2       -0.0090
      7    C       25.9640    1.3440    4.2720 C.3     2  LIG2       -0.0468
      8    C       27.3690    5.7250    4.2730 C.3     2  LIG2       -0.0404
      9    C       24.2850    3.3690    4.0510 C.3     2  LIG2        0.0664
     10    C       24.9510    5.9070    3.9060 C.3     2  LIG2       -0.0471
     11    C       24.6730    1.9170    3.6470 C.3     2  LIG2       -0.0237
     12    C       29.8500    1.8890    3.6050 C.3     2  LIG2       -0.0593
     13    C       28.6040    2.2300    5.8060 C.3     2  LIG2       -0.0593
     14    C       26.2540    6.7000    3.8560 C.3     2  LIG2       -0.0498
     15    C       28.0470    6.0920    5.6050 C.3     2  LIG2       -0.0621
     16    C       23.8700    3.4170    5.5450 C.3     2  LIG2       -0.0358
     17    H       28.0080    3.6520    2.5790 H       2  LIG2        0.0312
     18    H       27.4160    1.1960    2.6470 H       2  LIG2        0.0309
     19    H       26.5890    4.0120    5.2940 H       2  LIG2        0.0310
     20    H       25.4640    4.3660    2.5340 H       2  LIG2        0.0331
     21    H       25.9140    0.2560    4.1990 H       2  LIG2        0.0269
     22    H       25.9880    1.5520    5.3390 H       2  LIG2        0.0269
     23    H       28.1370    5.7880    3.4990 H       2  LIG2        0.0301
     24    H       24.2300    6.2860    3.1820 H       2  LIG2        0.0269
     25    H       24.5040    6.0180    4.8940 H       2  LIG2        0.0269
     26    H       24.7700    1.8500    2.5620 H       2  LIG2        0.0293
     27    H       23.8520    1.2440    3.9060 H       2  LIG2        0.0293
     28    H       30.1750    0.8920    3.9010 H       2  LIG2        0.0235
     29    H       30.6290    2.5960    3.8950 H       2  LIG2        0.0235
     30    H       29.7920    1.9010    2.5170 H       2  LIG2        0.0235
     31    H       28.8960    1.2390    6.1580 H       2  LIG2        0.0235
     32    H       27.6820    2.4840    6.3220 H       2  LIG2        0.0235
     33    H       29.3610    2.9350    6.1510 H       2  LIG2        0.0235
     34    H       26.2020    7.5820    4.4970 H       2  LIG2        0.0268
     35    H       26.4320    7.0590    2.8410 H       2  LIG2        0.0268
     36    H       27.3360    6.0780    6.4310 H       2  LIG2        0.0233
     37    H       28.4850    7.0900    5.5620 H       2  LIG2        0.0233
     38    H       28.8490    5.3920    5.8430 H       2  LIG2        0.0233
     39    H       24.7150    3.2780    6.2180 H       2  LIG2        0.0257
     40    H       23.1480    2.6350    5.7820 H       2  LIG2        0.0257
     41    H       23.3960    4.3600    5.8160 H       2  LIG2        0.0257
     42    H       22.4520    2.9640    3.5300 H       2  LIG2        0.2102
@<TRIPOS>BOND
     1    30    12    1
     2    20     6    1
     3    26    11    1
     4    17     2    1
     5    18     4    1
     6    35    14    1
     7    24    10    1
     8     1    42    1
     9     1     9    1
    10    23     8    1
    11     2     4    1
    12     2     5    1
    13     2     3    1
    14     4     3    1
    15     4     7    1
    16    12    29    1
    17    12    28    1
    18    12     3    1
    19     6    10    1
    20     6     9    1
    21     6     5    1
    22    11    27    1
    23    11     9    1
    24    11     7    1
    25    14    10    1
    26    14     8    1
    27    14    34    1
    28    10    25    1
    29     9    16    1
    30    21     7    1
    31     5     8    1
    32     5    19    1
    33     3    13    1
    34     7    22    1
    35     8    15    1
    36    16    40    1
    37    16    41    1
    38    16    39    1
    39    37    15    1
    40    15    38    1
    41    15    36    1
    42    13    33    1
    43    13    31    1
    44    13    32    1
@<TRIPOS>MOLECULE
11996452_3_run_15.pdb
 42 44 0 0 0
SMALL
GASTEIGER

@<TRIPOS>ATOM
      1    O       27.7910    5.5700    5.5400 O.3     2  LIG2       -0.3886
      2    C       27.6980    1.0500    4.8800 C.3     2  LIG2       -0.0289
      3    C       28.6250    0.1700    4.0590 C.3     2  LIG2       -0.0284
      4    C       29.2130    1.2940    4.8860 C.3     2  LIG2       -0.0319
      5    C       26.7600    2.1180    4.2610 C.3     2  LIG2       -0.0294
      6    C       26.7650    3.4590    5.0380 C.3     2  LIG2       -0.0090
      7    C       29.7840    2.5960    4.2850 C.3     2  LIG2       -0.0468
      8    C       25.2830    1.6460    4.2060 C.3     2  LIG2       -0.0404
      9    C       27.9410    4.4400    4.6960 C.3     2  LIG2        0.0664
     10    C       25.3480    4.0220    4.8090 C.3     2  LIG2       -0.0471
     11    C       29.3470    3.8700    5.0410 C.3     2  LIG2       -0.0237
     12    C       28.8480   -1.2630    4.5780 C.3     2  LIG2       -0.0593
     13    C       28.6290    0.2220    2.5130 C.3     2  LIG2       -0.0593
     14    C       24.4280    2.8070    4.7430 C.3     2  LIG2       -0.0498
     15    C       24.8440    1.1430    2.8190 C.3     2  LIG2       -0.0621
     16    C       27.9300    5.0030    3.2510 C.3     2  LIG2       -0.0358
     17    H       27.2850    0.6380    5.8020 H       2  LIG2        0.0312
     18    H       29.7880    0.9830    5.7590 H       2  LIG2        0.0309
     19    H       27.0630    2.3470    3.2440 H       2  LIG2        0.0310
     20    H       26.8340    3.2240    6.1040 H       2  LIG2        0.0331
     21    H       30.8710    2.5290    4.3480 H       2  LIG2        0.0269
     22    H       29.5710    2.6980    3.2250 H       2  LIG2        0.0269
     23    H       25.1450    0.8160    4.9020 H       2  LIG2        0.0301
     24    H       25.0470    4.7030    5.6050 H       2  LIG2        0.0269
     25    H       25.2800    4.5740    3.8720 H       2  LIG2        0.0269
     26    H       29.4070    3.6600    6.1100 H       2  LIG2        0.0293
     27    H       30.0990    4.6400    4.8550 H       2  LIG2        0.0293
     28    H       29.8070   -1.6560    4.2380 H       2  LIG2        0.0235
     29    H       28.0650   -1.9340    4.2230 H       2  LIG2        0.0235
     30    H       28.8460   -1.3110    5.6670 H       2  LIG2        0.0235
     31    H       29.5840   -0.1330    2.1220 H       2  LIG2        0.0235
     32    H       28.4680    1.2120    2.0930 H       2  LIG2        0.0235
     33    H       27.8490   -0.4220    2.1060 H       2  LIG2        0.0235
     34    H       23.5530    3.0110    4.1210 H       2  LIG2        0.0268
     35    H       24.0560    2.5670    5.7400 H       2  LIG2        0.0268
     36    H       24.9280    1.9270    2.0660 H       2  LIG2        0.0233
     37    H       23.8070    0.8060    2.8320 H       2  LIG2        0.0233
     38    H       25.4580    0.3020    2.4950 H       2  LIG2        0.0233
     39    H       27.9800    4.2190    2.4970 H       2  LIG2        0.0257
     40    H       28.7810    5.6620    3.0750 H       2  LIG2        0.0257
     41    H       27.0390    5.5940    3.0400 H       2  LIG2        0.0257
     42    H       28.4600    6.2170    5.3020 H       2  LIG2        0.2102
@<TRIPOS>BOND
     1    36    15    1
     2    32    13    1
     3    33    13    1
     4    31    13    1
     5    38    15    1
     6    39    16    1
     7    13     3    1
     8    15    37    1
     9    15     8    1
    10    41    16    1
    11    40    16    1
    12    22     7    1
    13    19     5    1
    14    16     9    1
    15    25    10    1
    16     3    12    1
    17     3     2    1
    18     3     4    1
    19    34    14    1
    20     8     5    1
    21     8    14    1
    22     8    23    1
    23    29    12    1
    24    28    12    1
    25     5     2    1
    26     5     6    1
    27     7    21    1
    28     7     4    1
    29     7    11    1
    30    12    30    1
    31     9     6    1
    32     9    11    1
    33     9     1    1
    34    14    10    1
    35    14    35    1
    36    10     6    1
    37    10    24    1
    38    27    11    1
    39     2     4    1
    40     2    17    1
    41     4    18    1
    42     6    20    1
    43    11    26    1
    44    42     1    1
@<TRIPOS>MOLECULE
11996452_3_run_13.pdb
 42 44 0 0 0
SMALL
GASTEIGER

@<TRIPOS>ATOM
      1    O       31.5790    0.2270    5.5430 O.3     2  LIG2       -0.3886
      2    C       28.2620    2.6930    3.5930 C.3     2  LIG2       -0.0289
      3    C       27.4920    3.8850    4.1360 C.3     2  LIG2       -0.0284
      4    C       28.9810    3.7870    4.3940 C.3     2  LIG2       -0.0319
      5    C       28.1580    1.2640    4.1860 C.3     2  LIG2       -0.0294
      6    C       29.5310    0.5620    4.3340 C.3     2  LIG2       -0.0090
      7    C       29.5960    3.4540    5.7700 C.3     2  LIG2       -0.0468
      8    C       27.2770    0.3270    3.3170 C.3     2  LIG2       -0.0404
      9    C       30.3480    0.9280    5.6230 C.3     2  LIG2        0.0664
     10    C       29.2020   -0.9340    4.1650 C.3     2  LIG2       -0.0471
     11    C       30.7490    2.4300    5.7010 C.3     2  LIG2       -0.0237
     12    C       27.0340    4.9330    3.1050 C.3     2  LIG2       -0.0593
     13    C       26.4660    3.7290    5.2830 C.3     2  LIG2       -0.0593
     14    C       28.0540   -0.9910    3.1600 C.3     2  LIG2       -0.0498
     15    C       25.8470    0.1430    3.8590 C.3     2  LIG2       -0.0621
     16    C       29.7050    0.4760    6.9600 C.3     2  LIG2       -0.0358
     17    H       28.4830    2.6700    2.5250 H       2  LIG2        0.0312
     18    H       29.5990    4.5070    3.8550 H       2  LIG2        0.0309
     19    H       27.7150    1.2950    5.1770 H       2  LIG2        0.0310
     20    H       30.1410    0.8430    3.4700 H       2  LIG2        0.0331
     21    H       30.0000    4.3830    6.1740 H       2  LIG2        0.0269
     22    H       28.8530    3.1330    6.4950 H       2  LIG2        0.0269
     23    H       27.1830    0.7500    2.3150 H       2  LIG2        0.0301
     24    H       30.0620   -1.5040    3.8140 H       2  LIG2        0.0269
     25    H       28.8790   -1.3840    5.1030 H       2  LIG2        0.0269
     26    H       31.3740    2.6880    4.8430 H       2  LIG2        0.0293
     27    H       31.3830    2.5840    6.5770 H       2  LIG2        0.0293
     28    H       26.9110    5.9110    3.5710 H       2  LIG2        0.0235
     29    H       26.0800    4.6510    2.6580 H       2  LIG2        0.0235
     30    H       27.7500    5.0490    2.2910 H       2  LIG2        0.0235
     31    H       26.3300    4.6780    5.8050 H       2  LIG2        0.0235
     32    H       26.7380    2.9950    6.0370 H       2  LIG2        0.0235
     33    H       25.4940    3.4300    4.8900 H       2  LIG2        0.0235
     34    H       27.4310   -1.8720    3.3270 H       2  LIG2        0.0268
     35    H       28.4500   -1.0730    2.1470 H       2  LIG2        0.0268
     36    H       25.8530   -0.3020    4.8540 H       2  LIG2        0.0233
     37    H       25.2600   -0.5070    3.2090 H       2  LIG2        0.0233
     38    H       25.3270    1.0990    3.9240 H       2  LIG2        0.0233
     39    H       28.7150    0.9040    7.1140 H       2  LIG2        0.0257
     40    H       30.3130    0.7750    7.8150 H       2  LIG2        0.0257
     41    H       29.5990   -0.6070    7.0270 H       2  LIG2        0.0257
     42    H       32.0840    0.5850    4.8080 H       2  LIG2        0.2102
@<TRIPOS>BOND
     1    35    14    1
     2    30    12    1
     3    23     8    1
     4    17     2    1
     5    29    12    1
     6    12    28    1
     7    12     3    1
     8    14     8    1
     9    14    34    1
    10    14    10    1
    11    37    15    1
    12     8    15    1
    13     8     5    1
    14    20     6    1
    15     2     3    1
    16     2     5    1
    17     2     4    1
    18    24    10    1
    19    18     4    1
    20    15    38    1
    21    15    36    1
    22     3     4    1
    23     3    13    1
    24    10     6    1
    25    10    25    1
    26     5     6    1
    27     5    19    1
    28     6     9    1
    29     4     7    1
    30    42     1    1
    31    26    11    1
    32    33    13    1
    33    13    31    1
    34    13    32    1
    35     1     9    1
    36     9    11    1
    37     9    16    1
    38    11     7    1
    39    11    27    1
    40     7    21    1
    41     7    22    1
    42    16    41    1
    43    16    39    1
    44    16    40    1
@<TRIPOS>MOLECULE
11996452_3_run_7.pdb
 42 44 0 0 0
SMALL
GASTEIGER

@<TRIPOS>ATOM
      1    O       26.7500    4.8660    3.4290 O.3     2  LIG2       -0.3886
      2    C       28.6740    0.7250    3.5660 C.3     2  LIG2       -0.0289
      3    C       28.0270   -0.6410    3.7230 C.3     2  LIG2       -0.0284
      4    C       27.3650    0.3930    2.8370 C.3     2  LIG2       -0.0319
      5    C       28.6710    1.8060    4.6770 C.3     2  LIG2       -0.0294
      6    C       28.3480    3.2250    4.1470 C.3     2  LIG2       -0.0090
      7    C       26.0670    1.1410    3.2090 C.3     2  LIG2       -0.0468
      8    C       30.0370    1.9080    5.4070 C.3     2  LIG2       -0.0404
      9    C       26.8250    3.5550    3.9630 C.3     2  LIG2        0.0664
     10    C       29.1140    4.1600    5.1050 C.3     2  LIG2       -0.0471
     11    C       26.1170    2.6550    2.9090 C.3     2  LIG2       -0.0237
     12    C       28.7260   -1.8160    3.0130 C.3     2  LIG2       -0.0593
     13    C       27.3870   -1.0840    5.0590 C.3     2  LIG2       -0.0593
     14    C       30.3830    3.4040    5.4900 C.3     2  LIG2       -0.0498
     15    C       30.0690    1.1880    6.7670 C.3     2  LIG2       -0.0621
     16    C       25.9980    3.5970    5.2740 C.3     2  LIG2       -0.0358
     17    H       29.5580    0.8020    2.9320 H       2  LIG2        0.0312
     18    H       27.4020    0.1880    1.7660 H       2  LIG2        0.0309
     19    H       27.9210    1.5770    5.4290 H       2  LIG2        0.0310
     20    H       28.8260    3.3300    3.1690 H       2  LIG2        0.0331
     21    H       25.2650    0.7090    2.6100 H       2  LIG2        0.0269
     22    H       25.7670    0.9740    4.2410 H       2  LIG2        0.0269
     23    H       30.8100    1.4480    4.7870 H       2  LIG2        0.0301
     24    H       29.3490    5.1170    4.6400 H       2  LIG2        0.0269
     25    H       28.5380    4.3730    6.0050 H       2  LIG2        0.0269
     26    H       26.5920    2.7860    1.9350 H       2  LIG2        0.0293
     27    H       25.0890    3.0010    2.7780 H       2  LIG2        0.0293
     28    H       28.0180   -2.6140    2.7900 H       2  LIG2        0.0235
     29    H       29.5170   -2.2340    3.6360 H       2  LIG2        0.0235
     30    H       29.1820   -1.5140    2.0700 H       2  LIG2        0.0235
     31    H       26.6430   -1.8630    4.8860 H       2  LIG2        0.0235
     32    H       26.8850   -0.2890    5.6050 H       2  LIG2        0.0235
     33    H       28.1420   -1.4960    5.7280 H       2  LIG2        0.0235
     34    H       30.7320    3.7030    6.4800 H       2  LIG2        0.0268
     35    H       31.1840    3.6420    4.7890 H       2  LIG2        0.0268
     36    H       29.3370    1.6090    7.4570 H       2  LIG2        0.0233
     37    H       31.0510    1.2700    7.2330 H       2  LIG2        0.0233
     38    H       29.8470    0.1260    6.6530 H       2  LIG2        0.0233
     39    H       26.0260    2.6540    5.8160 H       2  LIG2        0.0257
     40    H       24.9470    3.8140    5.0740 H       2  LIG2        0.0257
     41    H       26.3420    4.3710    5.9600 H       2  LIG2        0.0257
     42    H       27.2700    4.8960    2.6220 H       2  LIG2        0.2102
@<TRIPOS>BOND
     1    18     4    1
     2    26    11    1
     3    30    12    1
     4    21     7    1
     5    42     1    1
     6    27    11    1
     7    28    12    1
     8     4     7    1
     9     4     2    1
    10     4     3    1
    11    11     7    1
    12    11     9    1
    13    17     2    1
    14    12    29    1
    15    12     3    1
    16    20     6    1
    17     7    22    1
    18     1     9    1
    19     2     3    1
    20     2     5    1
    21     3    13    1
    22     9     6    1
    23     9    16    1
    24     6     5    1
    25     6    10    1
    26    24    10    1
    27     5     8    1
    28     5    19    1
    29    23     8    1
    30    35    14    1
    31    31    13    1
    32    13    32    1
    33    13    33    1
    34    40    16    1
    35    10    14    1
    36    10    25    1
    37    16    39    1
    38    16    41    1
    39     8    14    1
    40     8    15    1
    41    14    34    1
    42    38    15    1
    43    15    37    1
    44    15    36    1
@<TRIPOS>MOLECULE
11996452_3_run_18.pdb
 42 44 0 0 0
SMALL
GASTEIGER

@<TRIPOS>ATOM
      1    O       30.7480   -0.8570    4.8550 O.3     2  LIG2       -0.3886
      2    C       26.9130    1.6260    4.8540 C.3     2  LIG2       -0.0289
      3    C       25.6880    1.5200    3.9610 C.3     2  LIG2       -0.0284
      4    C       26.3490    0.2540    4.4630 C.3     2  LIG2       -0.0319
      5    C       28.3140    2.0460    4.3400 C.3     2  LIG2       -0.0294
      6    C       29.4590    1.1680    4.9040 C.3     2  LIG2       -0.0090
      7    C       27.1810   -0.6930    3.5730 C.3     2  LIG2       -0.0468
      8    C       28.6620    3.5130    4.7060 C.3     2  LIG2       -0.0404
      9    C       29.7050   -0.1920    4.1610 C.3     2  LIG2        0.0664
     10    C       30.6680    2.1230    4.9480 C.3     2  LIG2       -0.0471
     11    C       28.4950   -1.1670    4.2310 C.3     2  LIG2       -0.0237
     12    C       24.3390    1.8980    4.6000 C.3     2  LIG2       -0.0593
     13    C       25.7410    1.9170    2.4670 C.3     2  LIG2       -0.0593
     14    C       30.0930    3.5000    5.2700 C.3     2  LIG2       -0.0498
     15    C       28.4620    4.5050    3.5460 C.3     2  LIG2       -0.0621
     16    C       30.2040   -0.0620    2.6980 C.3     2  LIG2       -0.0358
     17    H       26.7630    1.9160    5.8950 H       2  LIG2        0.0312
     18    H       25.7830   -0.3090    5.2060 H       2  LIG2        0.0309
     19    H       28.3620    1.9630    3.2580 H       2  LIG2        0.0310
     20    H       29.2150    0.9330    5.9440 H       2  LIG2        0.0331
     21    H       26.5680   -1.5750    3.3810 H       2  LIG2        0.0269
     22    H       27.3850   -0.2750    2.5900 H       2  LIG2        0.0269
     23    H       28.0140    3.8440    5.5200 H       2  LIG2        0.0301
     24    H       31.4020    1.8180    5.6940 H       2  LIG2        0.0269
     25    H       31.1830    2.1670    3.9890 H       2  LIG2        0.0269
     26    H       28.2770   -1.4080    5.2740 H       2  LIG2        0.0293
     27    H       28.7750   -2.1160    3.7680 H       2  LIG2        0.0293
     28    H       23.5140    1.3930    4.0960 H       2  LIG2        0.0235
     29    H       24.1630    2.9720    4.5370 H       2  LIG2        0.0235
     30    H       24.2920    1.6230    5.6540 H       2  LIG2        0.0235
     31    H       24.9510    1.4110    1.9100 H       2  LIG2        0.0235
     32    H       26.6770    1.6790    1.9690 H       2  LIG2        0.0235
     33    H       25.5880    2.9900    2.3500 H       2  LIG2        0.0235
     34    H       30.7190    4.2930    4.8550 H       2  LIG2        0.0268
     35    H       30.0700    3.6500    6.3500 H       2  LIG2        0.0268
     36    H       29.0990    4.2570    2.6960 H       2  LIG2        0.0233
     37    H       28.7020    5.5240    3.8530 H       2  LIG2        0.0233
     38    H       27.4280    4.5010    3.2000 H       2  LIG2        0.0233
     39    H       29.5090    0.4910    2.0670 H       2  LIG2        0.0257
     40    H       30.3380   -1.0400    2.2360 H       2  LIG2        0.0257
     41    H       31.1680    0.4420    2.6290 H       2  LIG2        0.0257
     42    H       31.5590   -0.3570    4.7360 H       2  LIG2        0.2102
@<TRIPOS>BOND
     1    31    13    1
     2    32    13    1
     3    39    16    1
     4    40    16    1
     5    33    13    1
     6    13     3    1
     7    22     7    1
     8    41    16    1
     9    36    15    1
    10    16     9    1
    11    38    15    1
    12    19     5    1
    13    21     7    1
    14    15    37    1
    15    15     8    1
    16     7    11    1
    17     7     4    1
    18    27    11    1
    19     3     4    1
    20     3    12    1
    21     3     2    1
    22    25    10    1
    23    28    12    1
    24     9    11    1
    25     9     1    1
    26     9     6    1
    27    11    26    1
    28     5     8    1
    29     5     2    1
    30     5     6    1
    31     4     2    1
    32     4    18    1
    33    29    12    1
    34    12    30    1
    35     8    14    1
    36     8    23    1
    37    42     1    1
    38     2    17    1
    39    34    14    1
    40     6    10    1
    41     6    20    1
    42    10    14    1
    43    10    24    1
    44    14    35    1
@<TRIPOS>MOLECULE
11996452_3_run_14.pdb
 42 44 0 0 0
SMALL
GASTEIGER

@<TRIPOS>ATOM
      1    O       25.4710    6.9640    5.0910 O.3     2  LIG2       -0.3886
      2    C       27.3430    2.7980    5.1950 C.3     2  LIG2       -0.0289
      3    C       28.5880    2.2750    4.4980 C.3     2  LIG2       -0.0284
      4    C       28.6070    3.6620    5.1050 C.3     2  LIG2       -0.0319
      5    C       26.0640    3.2440    4.4410 C.3     2  LIG2       -0.0294
      6    C       25.4650    4.5660    4.9830 C.3     2  LIG2       -0.0090
      7    C       28.5910    4.9640    4.2770 C.3     2  LIG2       -0.0468
      8    C       24.9330    2.1840    4.5180 C.3     2  LIG2       -0.0404
      9    C       26.1220    5.8840    4.4420 C.3     2  LIG2        0.0664
     10    C       23.9540    4.4240    4.7150 C.3     2  LIG2       -0.0471
     11    C       27.6220    6.0350    4.8250 C.3     2  LIG2       -0.0237
     12    C       29.3820    1.1830    5.2390 C.3     2  LIG2       -0.0593
     13    C       28.6300    2.0680    2.9660 C.3     2  LIG2       -0.0593
     14    C       23.6440    2.9390    4.8850 C.3     2  LIG2       -0.0498
     15    C       24.8060    1.3200    3.2510 C.3     2  LIG2       -0.0621
     16    C       25.9280    6.1410    2.9240 C.3     2  LIG2       -0.0358
     17    H       27.1100    2.4070    6.1860 H       2  LIG2        0.0312
     18    H       29.2260    3.7760    5.9970 H       2  LIG2        0.0309
     19    H       26.2800    3.4080    3.3890 H       2  LIG2        0.0310
     20    H       25.5860    4.5630    6.0700 H       2  LIG2        0.0331
     21    H       29.5990    5.3790    4.3110 H       2  LIG2        0.0269
     22    H       28.3960    4.7890    3.2220 H       2  LIG2        0.0269
     23    H       25.1350    1.5020    5.3470 H       2  LIG2        0.0301
     24    H       23.3600    5.0320    5.3980 H       2  LIG2        0.0269
     25    H       23.6940    4.7300    3.7020 H       2  LIG2        0.0269
     26    H       27.7250    6.0510    5.9120 H       2  LIG2        0.0293
     27    H       27.9800    7.0100    4.4880 H       2  LIG2        0.0293
     28    H       30.4290    1.1870    4.9350 H       2  LIG2        0.0235
     29    H       28.9750    0.1930    5.0290 H       2  LIG2        0.0235
     30    H       29.3580    1.3200    6.3200 H       2  LIG2        0.0235
     31    H       29.6590    2.0960    2.6050 H       2  LIG2        0.0235
     32    H       28.0790    2.8090    2.3940 H       2  LIG2        0.0235
     33    H       28.2170    1.0950    2.6990 H       2  LIG2        0.0235
     34    H       22.7910    2.6440    4.2700 H       2  LIG2        0.0268
     35    H       23.3710    2.7320    5.9200 H       2  LIG2        0.0268
     36    H       24.5760    1.9290    2.3750 H       2  LIG2        0.0233
     37    H       24.0120    0.5790    3.3560 H       2  LIG2        0.0233
     38    H       25.7320    0.7810    3.0480 H       2  LIG2        0.0233
     39    H       26.3380    5.3400    2.3100 H       2  LIG2        0.0257
     40    H       26.4220    7.0620    2.6110 H       2  LIG2        0.0257
     41    H       24.8800    6.2500    2.6500 H       2  LIG2        0.0257
     42    H       25.7020    6.9410    6.0230 H       2  LIG2        0.2102
@<TRIPOS>BOND
     1    39    16    1
     2    36    15    1
     3    32    13    1
     4    31    13    1
     5    40    16    1
     6    41    16    1
     7    33    13    1
     8    16     9    1
     9    13     3    1
    10    38    15    1
    11    22     7    1
    12    15    37    1
    13    15     8    1
    14    19     5    1
    15    25    10    1
    16    34    14    1
    17     7    21    1
    18     7    11    1
    19     7     4    1
    20     5     8    1
    21     5     6    1
    22     5     2    1
    23     9    11    1
    24     9     6    1
    25     9     1    1
    26    27    11    1
    27     3     4    1
    28     3     2    1
    29     3    12    1
    30     8    14    1
    31     8    23    1
    32    10    14    1
    33    10     6    1
    34    10    24    1
    35    11    26    1
    36    14    35    1
    37    28    12    1
    38     6    20    1
    39    29    12    1
    40     1    42    1
    41     4     2    1
    42     4    18    1
    43     2    17    1
    44    12    30    1
@<TRIPOS>MOLECULE
11996452_3_run_18.pdb
 42 44 0 0 0
SMALL
GASTEIGER

@<TRIPOS>ATOM
      1    O       28.9780    0.2370    3.5310 O.3     2  LIG2       -0.3886
      2    C       26.7500    4.2260    3.5660 C.3     2  LIG2       -0.0289
      3    C       26.9830    5.4600    4.4200 C.3     2  LIG2       -0.0284
      4    C       28.1750    4.7070    3.8680 C.3     2  LIG2       -0.0319
      5    C       26.2710    2.8670    4.1380 C.3     2  LIG2       -0.0294
      6    C       27.0400    1.6540    3.5580 C.3     2  LIG2       -0.0090
      7    C       29.1150    3.8350    4.7270 C.3     2  LIG2       -0.0468
      8    C       24.7660    2.6070    3.8620 C.3     2  LIG2       -0.0404
      9    C       28.4210    1.3360    4.2330 C.3     2  LIG2        0.0664
     10    C       26.0090    0.5100    3.5970 C.3     2  LIG2       -0.0471
     11    C       29.4660    2.4790    4.0780 C.3     2  LIG2       -0.0237
     12    C       26.6580    6.8170    3.7680 C.3     2  LIG2       -0.0593
     13    C       26.6680    5.4670    5.9340 C.3     2  LIG2       -0.0593
     14    C       24.6560    1.1660    3.3350 C.3     2  LIG2       -0.0498
     15    C       23.8550    2.8970    5.0680 C.3     2  LIG2       -0.0621
     16    C       28.3410    0.8800    5.7130 C.3     2  LIG2       -0.0358
     17    H       26.4130    4.3700    2.5390 H       2  LIG2        0.0312
     18    H       28.7310    5.2190    3.0800 H       2  LIG2        0.0309
     19    H       26.4100    2.8370    5.2150 H       2  LIG2        0.0310
     20    H       27.2320    1.8590    2.5010 H       2  LIG2        0.0331
     21    H       30.0430    4.3930    4.8550 H       2  LIG2        0.0269
     22    H       28.7400    3.6810    5.7360 H       2  LIG2        0.0269
     23    H       24.4320    3.2560    3.0500 H       2  LIG2        0.0301
     24    H       26.2250   -0.2600    2.8550 H       2  LIG2        0.0269
     25    H       25.9860    0.0200    4.5700 H       2  LIG2        0.0269
     26    H       29.6630    2.6570    3.0190 H       2  LIG2        0.0293
     27    H       30.4200    2.1480    4.4960 H       2  LIG2        0.0293
     28    H       27.2420    7.6180    4.2210 H       2  LIG2        0.0235
     29    H       25.6020    7.0640    3.8840 H       2  LIG2        0.0235
     30    H       26.8760    6.8220    2.7000 H       2  LIG2        0.0235
     31    H       27.2530    6.2350    6.4430 H       2  LIG2        0.0235
     32    H       26.8730    4.5290    6.4430 H       2  LIG2        0.0235
     33    H       25.6150    5.6930    6.1050 H       2  LIG2        0.0235
     34    H       23.8490    0.6030    3.8090 H       2  LIG2        0.0268
     35    H       24.4470    1.1740    2.2650 H       2  LIG2        0.0268
     36    H       24.1080    2.2650    5.9200 H       2  LIG2        0.0233
     37    H       22.8070    2.7180    4.8230 H       2  LIG2        0.0233
     38    H       23.9440    3.9360    5.3860 H       2  LIG2        0.0233
     39    H       27.8700    1.6240    6.3540 H       2  LIG2        0.0257
     40    H       29.3330    0.6930    6.1250 H       2  LIG2        0.0257
     41    H       27.7820   -0.0470    5.8340 H       2  LIG2        0.0257
     42    H       29.0600    0.4780    2.6050 H       2  LIG2        0.2102
@<TRIPOS>BOND
     1    35    14    1
     2    20     6    1
     3    17     2    1
     4    42     1    1
     5    30    12    1
     6    24    10    1
     7    26    11    1
     8    23     8    1
     9    18     4    1
    10    14    10    1
    11    14    34    1
    12    14     8    1
    13     1     9    1
    14     6    10    1
    15     6     5    1
    16     6     9    1
    17     2     4    1
    18     2     5    1
    19     2     3    1
    20    10    25    1
    21    12    29    1
    22    12    28    1
    23    12     3    1
    24     8     5    1
    25     8    15    1
    26     4     3    1
    27     4     7    1
    28    11     9    1
    29    11    27    1
    30    11     7    1
    31     5    19    1
    32     9    16    1
    33     3    13    1
    34     7    21    1
    35     7    22    1
    36    37    15    1
    37    15    38    1
    38    15    36    1
    39    16    41    1
    40    16    40    1
    41    16    39    1
    42    13    33    1
    43    13    32    1
    44    13    31    1
@<TRIPOS>MOLECULE
11996452_3_run_7.pdb
 42 44 0 0 0
SMALL
GASTEIGER

@<TRIPOS>ATOM
      1    O       30.5110    3.0740    4.4050 O.3     2  LIG2       -0.3886
      2    C       26.1030    3.8830    3.5190 C.3     2  LIG2       -0.0289
      3    C       25.0260    4.4780    4.4110 C.3     2  LIG2       -0.0284
      4    C       26.4190    5.0720    4.4340 C.3     2  LIG2       -0.0319
      5    C       26.7790    2.5150    3.7910 C.3     2  LIG2       -0.0294
      6    C       28.3160    2.5430    3.5920 C.3     2  LIG2       -0.0090
      7    C       27.4090    4.8990    5.6050 C.3     2  LIG2       -0.0468
      8    C       26.2360    1.3920    2.8670 C.3     2  LIG2       -0.0404
      9    C       29.1510    3.0840    4.8050 C.3     2  LIG2        0.0664
     10    C       28.6560    1.1080    3.1440 C.3     2  LIG2       -0.0471
     11    C       28.8490    4.5700    5.1550 C.3     2  LIG2       -0.0237
     12    C       23.9330    5.3040    3.7080 C.3     2  LIG2       -0.0593
     13    C       24.4630    3.7040    5.6250 C.3     2  LIG2       -0.0593
     14    C       27.4610    0.6390    2.3190 C.3     2  LIG2       -0.0498
     15    C       25.2000    0.4790    3.5450 C.3     2  LIG2       -0.0621
     16    C       29.0930    2.2090    6.0850 C.3     2  LIG2       -0.0358
     17    H       26.0650    4.1070    2.4520 H       2  LIG2        0.0312
     18    H       26.5150    6.0630    3.9870 H       2  LIG2        0.0309
     19    H       26.6040    2.2010    4.8160 H       2  LIG2        0.0310
     20    H       28.5270    3.1900    2.7350 H       2  LIG2        0.0331
     21    H       27.4380    5.8470    6.1440 H       2  LIG2        0.0269
     22    H       27.0700    4.1710    6.3370 H       2  LIG2        0.0269
     23    H       25.7430    1.8440    2.0040 H       2  LIG2        0.0301
     24    H       29.5770    1.0700    2.5620 H       2  LIG2        0.0269
     25    H       28.7860    0.4400    3.9960 H       2  LIG2        0.0269
     26    H       29.0840    5.2040    4.2990 H       2  LIG2        0.0293
     27    H       29.5270    4.8930    5.9490 H       2  LIG2        0.0293
     28    H       23.4960    6.0340    4.3890 H       2  LIG2        0.0235
     29    H       23.1300    4.6610    3.3450 H       2  LIG2        0.0235
     30    H       24.3200    5.8530    2.8490 H       2  LIG2        0.0235
     31    H       24.0400    4.3950    6.3560 H       2  LIG2        0.0235
     32    H       25.1940    3.0980    6.1540 H       2  LIG2        0.0235
     33    H       23.6640    3.0300    5.3120 H       2  LIG2        0.0235
     34    H       27.3490   -0.4450    2.3720 H       2  LIG2        0.0268
     35    H       27.6130    0.8890    1.2680 H       2  LIG2        0.0268
     36    H       25.6250   -0.0340    4.4090 H       2  LIG2        0.0233
     37    H       24.8330   -0.2820    2.8550 H       2  LIG2        0.0233
     38    H       24.3380    1.0510    3.8900 H       2  LIG2        0.0233
     39    H       28.0790    2.0880    6.4630 H       2  LIG2        0.0257
     40    H       29.6800    2.6490    6.8930 H       2  LIG2        0.0257
     41    H       29.4980    1.2100    5.9260 H       2  LIG2        0.0257
     42    H       30.6280    3.7280    3.7110 H       2  LIG2        0.2102
@<TRIPOS>BOND
     1    35    14    1
     2    23     8    1
     3    14    34    1
     4    14     8    1
     5    14    10    1
     6    17     2    1
     7    24    10    1
     8    20     6    1
     9    30    12    1
    10    37    15    1
    11     8    15    1
    12     8     5    1
    13    10     6    1
    14    10    25    1
    15    29    12    1
    16     2     5    1
    17     2     3    1
    18     2     4    1
    19    15    38    1
    20    15    36    1
    21     6     5    1
    22     6     9    1
    23    12    28    1
    24    12     3    1
    25    42     1    1
    26     5    19    1
    27    18     4    1
    28    26    11    1
    29     1     9    1
    30     3     4    1
    31     3    13    1
    32     4     7    1
    33     9    11    1
    34     9    16    1
    35    11     7    1
    36    11    27    1
    37    33    13    1
    38     7    21    1
    39     7    22    1
    40    13    32    1
    41    13    31    1
    42    41    16    1
    43    16    39    1
    44    16    40    1
@<TRIPOS>MOLECULE
11996452_3_run_20.pdb
 42 44 0 0 0
SMALL
GASTEIGER

@<TRIPOS>ATOM
      1    O       31.2890    2.3930    4.2520 O.3     2  LIG2       -0.3886
      2    C       27.0940    1.1330    2.9520 C.3     2  LIG2       -0.0289
      3    C       25.7400    1.6520    3.4060 C.3     2  LIG2       -0.0284
      4    C       26.8700    2.6340    3.1770 C.3     2  LIG2       -0.0319
      5    C       28.0710    0.3640    3.8780 C.3     2  LIG2       -0.0294
      6    C       29.5420    0.8300    3.7370 C.3     2  LIG2       -0.0090
      7    C       27.6210    3.3610    4.3130 C.3     2  LIG2       -0.0468
      8    C       28.0650   -1.1640    3.6050 C.3     2  LIG2       -0.0404
      9    C       29.9330    2.1100    4.5560 C.3     2  LIG2        0.0664
     10    C       30.3620   -0.4350    4.0590 C.3     2  LIG2       -0.0471
     11    C       29.1530    3.3860    4.1250 C.3     2  LIG2       -0.0237
     12    C       24.6130    1.6370    2.3560 C.3     2  LIG2       -0.0593
     13    C       25.1990    1.3650    4.8250 C.3     2  LIG2       -0.0593
     14    C       29.5360   -1.6060    3.5320 C.3     2  LIG2       -0.0498
     15    C       27.2240   -1.9700    4.6120 C.3     2  LIG2       -0.0621
     16    C       29.8830    1.9460    6.0970 C.3     2  LIG2       -0.0358
     17    H       27.2010    0.8250    1.9110 H       2  LIG2        0.0312
     18    H       26.7610    3.2820    2.3060 H       2  LIG2        0.0309
     19    H       27.7980    0.5060    4.9200 H       2  LIG2        0.0310
     20    H       29.7190    1.0500    2.6800 H       2  LIG2        0.0331
     21    H       27.2700    4.3940    4.3210 H       2  LIG2        0.0269
     22    H       27.3710    2.9730    5.2970 H       2  LIG2        0.0269
     23    H       27.6390   -1.3500    2.6170 H       2  LIG2        0.0301
     24    H       31.3490   -0.4090    3.5970 H       2  LIG2        0.0269
     25    H       30.5110   -0.5570    5.1310 H       2  LIG2        0.0269
     26    H       29.3570    3.6050    3.0750 H       2  LIG2        0.0293
     27    H       29.5410    4.2440    4.6790 H       2  LIG2        0.0293
     28    H       23.8610    2.3930    2.5800 H       2  LIG2        0.0235
     29    H       24.1160    0.6660    2.3300 H       2  LIG2        0.0235
     30    H       24.9840    1.8370    1.3510 H       2  LIG2        0.0235
     31    H       24.4620    2.1160    5.1120 H       2  LIG2        0.0235
     32    H       25.9570    1.3570    5.6050 H       2  LIG2        0.0235
     33    H       24.7060    0.3930    4.8580 H       2  LIG2        0.0235
     34    H       29.7340   -2.5140    4.1050 H       2  LIG2        0.0268
     35    H       29.8110   -1.8200    2.4980 H       2  LIG2        0.0268
     36    H       27.6040   -1.8570    5.6280 H       2  LIG2        0.0233
     37    H       27.2350   -3.0340    4.3710 H       2  LIG2        0.0233
     38    H       26.1840   -1.6420    4.6060 H       2  LIG2        0.0233
     39    H       28.8940    1.6650    6.4550 H       2  LIG2        0.0257
     40    H       30.1490    2.8740    6.6040 H       2  LIG2        0.0257
     41    H       30.5810    1.1920    6.4590 H       2  LIG2        0.0257
     42    H       31.8070    1.5990    4.4050 H       2  LIG2        0.2102
@<TRIPOS>BOND
     1    30    12    1
     2    17     2    1
     3    18     4    1
     4    29    12    1
     5    12    28    1
     6    12     3    1
     7    35    14    1
     8    23     8    1
     9    20     6    1
    10     2     4    1
    11     2     3    1
    12     2     5    1
    13    26    11    1
    14     4     3    1
    15     4     7    1
    16     3    13    1
    17    14     8    1
    18    14    10    1
    19    14    34    1
    20    24    10    1
    21     8     5    1
    22     8    15    1
    23     6     5    1
    24     6    10    1
    25     6     9    1
    26     5    19    1
    27    10    25    1
    28    11     7    1
    29    11     9    1
    30    11    27    1
    31     1    42    1
    32     1     9    1
    33     7    21    1
    34     7    22    1
    35    37    15    1
    36     9    16    1
    37    38    15    1
    38    15    36    1
    39    13    33    1
    40    13    31    1
    41    13    32    1
    42    16    39    1
    43    16    41    1
    44    16    40    1
