@<TRIPOS>MOLECULE
11996452_11_run_18.pdb
 42 44 0 0 0
SMALL
GASTEIGER

@<TRIPOS>ATOM
      1    O       31.3490   -0.0120    5.3020 O.3     2  LIG2       -0.3886
      2    C       27.8480    2.5080    3.8160 C.3     2  LIG2       -0.0289
      3    C       27.2900    3.8220    4.3300 C.3     2  LIG2       -0.0284
      4    C       28.7880    3.6080    4.3300 C.3     2  LIG2       -0.0319
      5    C       27.7810    1.1760    4.6090 C.3     2  LIG2       -0.0294
      6    C       29.1220    0.4020    4.4940 C.3     2  LIG2       -0.0090
      7    C       29.6280    3.3640    5.6050 C.3     2  LIG2       -0.0468
      8    C       26.6530    0.1850    4.2000 C.3     2  LIG2       -0.0404
      9    C       30.2010    0.7770    5.5670 C.3     2  LIG2        0.0664
     10    C       28.7140   -1.0800    4.4200 C.3     2  LIG2       -0.0471
     11    C       30.6920    2.2520    5.4520 C.3     2  LIG2       -0.0237
     12    C       26.7250    4.7860    3.2690 C.3     2  LIG2       -0.0593
     13    C       26.4830    3.8920    5.6480 C.3     2  LIG2       -0.0593
     14    C       27.3690   -1.0760    3.6990 C.3     2  LIG2       -0.0498
     15    C       25.6020    0.7140    3.2010 C.3     2  LIG2       -0.0621
     16    C       29.8110    0.4520    7.0310 C.3     2  LIG2       -0.0358
     17    H       27.8640    2.3400    2.7380 H       2  LIG2        0.0312
     18    H       29.3490    4.1960    3.6020 H       2  LIG2        0.0309
     19    H       27.6080    1.3900    5.6590 H       2  LIG2        0.0310
     20    H       29.5580    0.6290    3.5180 H       2  LIG2        0.0331
     21    H       30.1490    4.2950    5.8300 H       2  LIG2        0.0269
     22    H       29.0140    3.1690    6.4820 H       2  LIG2        0.0269
     23    H       26.1070   -0.0950    5.1040 H       2  LIG2        0.0301
     24    H       29.4490   -1.6800    3.8810 H       2  LIG2        0.0269
     25    H       28.6000   -1.5180    5.4110 H       2  LIG2        0.0269
     26    H       31.1820    2.4000    4.4870 H       2  LIG2        0.0293
     27    H       31.4680    2.4280    6.1990 H       2  LIG2        0.0293
     28    H       26.7680    5.8180    3.6140 H       2  LIG2        0.0235
     29    H       25.6840    4.5500    3.0430 H       2  LIG2        0.0235
     30    H       27.2780    4.7330    2.3300 H       2  LIG2        0.0235
     31    H       26.4990    4.9030    6.0550 H       2  LIG2        0.0235
     32    H       26.8430    3.2330    6.4340 H       2  LIG2        0.0235
     33    H       25.4400    3.6250    5.4720 H       2  LIG2        0.0235
     34    H       26.8010   -1.9820    3.9140 H       2  LIG2        0.0268
     35    H       27.5200   -1.0350    2.6190 H       2  LIG2        0.0268
     36    H       26.0440    0.9630    2.2360 H       2  LIG2        0.0233
     37    H       25.1090    1.6080    3.5850 H       2  LIG2        0.0233
     38    H       24.8280   -0.0320    3.0200 H       2  LIG2        0.0233
     39    H       28.9350    1.0060    7.3650 H       2  LIG2        0.0257
     40    H       30.6180    0.7000    7.7220 H       2  LIG2        0.0257
     41    H       29.5970   -0.6070    7.1770 H       2  LIG2        0.0257
     42    H       31.8370    0.3930    4.5810 H       2  LIG2        0.2102
@<TRIPOS>BOND
     1    36    15    1
     2    30    12    1
     3    35    14    1
     4    17     2    1
     5    38    15    1
     6    29    12    1
     7    15    37    1
     8    15     8    1
     9    12    28    1
    10    12     3    1
    11    20     6    1
    12    18     4    1
    13    14    34    1
    14    14     8    1
    15    14    10    1
    16     2     4    1
    17     2     3    1
    18     2     5    1
    19    24    10    1
    20     8     5    1
    21     8    23    1
    22     4     3    1
    23     4     7    1
    24     3    13    1
    25    10     6    1
    26    10    25    1
    27    26    11    1
    28     6     5    1
    29     6     9    1
    30    42     1    1
    31     5    19    1
    32     1     9    1
    33    11     9    1
    34    11     7    1
    35    11    27    1
    36    33    13    1
    37     9    16    1
    38     7    21    1
    39     7    22    1
    40    13    31    1
    41    13    32    1
    42    16    41    1
    43    16    39    1
    44    16    40    1
@<TRIPOS>MOLECULE
11996452_11_run_4.pdb
 42 44 0 0 0
SMALL
GASTEIGER

@<TRIPOS>ATOM
      1    O       23.0990    3.6430    3.1050 O.3     2  LIG2       -0.3886
      2    C       27.6060    3.3220    3.7440 C.3     2  LIG2       -0.0289
      3    C       28.4410    2.2010    4.3350 C.3     2  LIG2       -0.0284
      4    C       27.2570    1.8540    3.4590 C.3     2  LIG2       -0.0319
      5    C       26.5960    4.1660    4.5630 C.3     2  LIG2       -0.0294
      6    C       25.2890    4.3950    3.7560 C.3     2  LIG2       -0.0090
      7    C       25.9290    1.2640    3.9920 C.3     2  LIG2       -0.0468
      8    C       27.0860    5.5680    5.0310 C.3     2  LIG2       -0.0404
      9    C       24.2050    3.2750    3.9140 C.3     2  LIG2        0.0664
     10    C       24.8530    5.8270    4.1120 C.3     2  LIG2       -0.0471
     11    C       24.6660    1.8930    3.3590 C.3     2  LIG2       -0.0237
     12    C       29.8410    1.9980    3.7240 C.3     2  LIG2       -0.0593
     13    C       28.4360    1.9120    5.8550 C.3     2  LIG2       -0.0593
     14    C       26.1590    6.5820    4.3490 C.3     2  LIG2       -0.0498
     15    C       28.5810    5.8800    4.8110 C.3     2  LIG2       -0.0621
     16    C       23.6290    3.1160    5.3440 C.3     2  LIG2       -0.0358
     17    H       28.0140    3.8800    2.9000 H       2  LIG2        0.0312
     18    H       27.4990    1.4400    2.4790 H       2  LIG2        0.0309
     19    H       26.3360    3.6350    5.4740 H       2  LIG2        0.0310
     20    H       25.5520    4.4300    2.6960 H       2  LIG2        0.0331
     21    H       25.9290    0.2010    3.7510 H       2  LIG2        0.0269
     22    H       25.8570    1.3050    5.0770 H       2  LIG2        0.0269
     23    H       26.9090    5.6450    6.1060 H       2  LIG2        0.0301
     24    H       24.2700    6.2880    3.3130 H       2  LIG2        0.0269
     25    H       24.2440    5.8520    5.0150 H       2  LIG2        0.0269
     26    H       24.8440    1.9710    2.2840 H       2  LIG2        0.0293
     27    H       23.8490    1.1760    3.4640 H       2  LIG2        0.0293
     28    H       30.1790    0.9700    3.8530 H       2  LIG2        0.0235
     29    H       30.5720    2.6540    4.1970 H       2  LIG2        0.0235
     30    H       29.8580    2.2140    2.6550 H       2  LIG2        0.0235
     31    H       28.7540    0.8880    6.0510 H       2  LIG2        0.0235
     32    H       27.4700    2.0360    6.3360 H       2  LIG2        0.0235
     33    H       29.1300    2.5760    6.3720 H       2  LIG2        0.0235
     34    H       25.9990    7.4680    4.9630 H       2  LIG2        0.0268
     35    H       26.5790    6.9170    3.3990 H       2  LIG2        0.0268
     36    H       28.8450    5.8910    3.7530 H       2  LIG2        0.0233
     37    H       29.2150    5.1450    5.3080 H       2  LIG2        0.0233
     38    H       28.8380    6.8590    5.2180 H       2  LIG2        0.0233
     39    H       24.3860    2.8250    6.0710 H       2  LIG2        0.0257
     40    H       22.8530    2.3490    5.3780 H       2  LIG2        0.0257
     41    H       23.1680    4.0340    5.7090 H       2  LIG2        0.0257
     42    H       22.4300    2.9580    3.1750 H       2  LIG2        0.2102
@<TRIPOS>BOND
     1    26    11    1
     2    18     4    1
     3    30    12    1
     4    20     6    1
     5    17     2    1
     6     1    42    1
     7     1     9    1
     8    24    10    1
     9    11    27    1
    10    11     9    1
    11    11     7    1
    12    35    14    1
    13     4     2    1
    14     4     7    1
    15     4     3    1
    16    12    28    1
    17    12    29    1
    18    12     3    1
    19     2     3    1
    20     2     5    1
    21    21     7    1
    22    36    15    1
    23     6     9    1
    24     6    10    1
    25     6     5    1
    26     9    16    1
    27     7    22    1
    28    10    14    1
    29    10    25    1
    30     3    13    1
    31    14    34    1
    32    14     8    1
    33     5     8    1
    34     5    19    1
    35    15     8    1
    36    15    38    1
    37    15    37    1
    38     8    23    1
    39    16    40    1
    40    16    41    1
    41    16    39    1
    42    13    31    1
    43    13    32    1
    44    13    33    1
@<TRIPOS>MOLECULE
11996452_11_run_16.pdb
 42 44 0 0 0
SMALL
GASTEIGER

@<TRIPOS>ATOM
      1    O       30.6570   -0.9960    4.9550 O.3     2  LIG2       -0.3886
      2    C       27.0070    1.7350    4.7780 C.3     2  LIG2       -0.0289
      3    C       25.7570    1.6580    3.9220 C.3     2  LIG2       -0.0284
      4    C       26.3590    0.3790    4.4640 C.3     2  LIG2       -0.0319
      5    C       28.4230    2.0170    4.2100 C.3     2  LIG2       -0.0294
      6    C       29.4770    1.0980    4.8850 C.3     2  LIG2       -0.0090
      7    C       27.1210   -0.6530    3.6010 C.3     2  LIG2       -0.0468
      8    C       28.9450    3.4770    4.3480 C.3     2  LIG2       -0.0404
      9    C       29.6770   -0.2980    4.2040 C.3     2  LIG2        0.0664
     10    C       30.7310    1.9790    5.0280 C.3     2  LIG2       -0.0471
     11    C       28.4060   -1.1990    4.2660 C.3     2  LIG2       -0.0237
     12    C       24.4490    2.1430    4.5760 C.3     2  LIG2       -0.0593
     13    C       25.7950    1.9930    2.4120 C.3     2  LIG2       -0.0593
     14    C       30.1910    3.3900    5.2380 C.3     2  LIG2       -0.0498
     15    C       27.9260    4.5270    4.8410 C.3     2  LIG2       -0.0621
     16    C       30.2320   -0.2480    2.7580 C.3     2  LIG2       -0.0358
     17    H       26.9060    2.0780    5.8090 H       2  LIG2        0.0312
     18    H       25.7840   -0.1180    5.2470 H       2  LIG2        0.0309
     19    H       28.4320    1.8080    3.1450 H       2  LIG2        0.0310
     20    H       29.1450    0.9030    5.9090 H       2  LIG2        0.0331
     21    H       26.4480   -1.4940    3.4350 H       2  LIG2        0.0269
     22    H       27.3520   -0.2800    2.6050 H       2  LIG2        0.0269
     23    H       29.2790    3.8090    3.3620 H       2  LIG2        0.0301
     24    H       31.3570    1.6660    5.8660 H       2  LIG2        0.0269
     25    H       31.3490    1.9500    4.1320 H       2  LIG2        0.0269
     26    H       28.1660   -1.4200    5.3080 H       2  LIG2        0.0293
     27    H       28.6320   -2.1660    3.8110 H       2  LIG2        0.0293
     28    H       23.5820    1.6640    4.1220 H       2  LIG2        0.0235
     29    H       24.3340    3.2220    4.4640 H       2  LIG2        0.0235
     30    H       24.4190    1.9240    5.6440 H       2  LIG2        0.0235
     31    H       24.9570    1.5280    1.8940 H       2  LIG2        0.0235
     32    H       26.6970    1.6680    1.8990 H       2  LIG2        0.0235
     33    H       25.7210    3.0700    2.2580 H       2  LIG2        0.0235
     34    H       30.9350    4.1430    4.9750 H       2  LIG2        0.0268
     35    H       29.9310    3.5430    6.2880 H       2  LIG2        0.0268
     36    H       27.5790    4.3150    5.8530 H       2  LIG2        0.0233
     37    H       27.0540    4.5660    4.1880 H       2  LIG2        0.0233
     38    H       28.3700    5.5230    4.8520 H       2  LIG2        0.0233
     39    H       29.5610    0.2630    2.0680 H       2  LIG2        0.0257
     40    H       30.3850   -1.2520    2.3550 H       2  LIG2        0.0257
     41    H       31.1970    0.2550    2.7010 H       2  LIG2        0.0257
     42    H       31.4940   -0.5330    4.8670 H       2  LIG2        0.2102
@<TRIPOS>BOND
     1    31    13    1
     2    32    13    1
     3    39    16    1
     4    33    13    1
     5    40    16    1
     6    13     3    1
     7    22     7    1
     8    41    16    1
     9    16     9    1
    10    19     5    1
    11    23     8    1
    12    21     7    1
    13     7    11    1
    14     7     4    1
    15    27    11    1
    16     3     4    1
    17     3    12    1
    18     3     2    1
    19    28    12    1
    20    25    10    1
    21    37    15    1
    22     9    11    1
    23     9     6    1
    24     9     1    1
    25     5     8    1
    26     5     2    1
    27     5     6    1
    28    11    26    1
    29     8    15    1
    30     8    14    1
    31    29    12    1
    32     4     2    1
    33     4    18    1
    34    12    30    1
    35     2    17    1
    36    15    38    1
    37    15    36    1
    38    42     1    1
    39     6    10    1
    40     6    20    1
    41    34    14    1
    42    10    14    1
    43    10    24    1
    44    14    35    1
@<TRIPOS>MOLECULE
11996452_11_run_23.pdb
 42 44 0 0 0
SMALL
GASTEIGER

@<TRIPOS>ATOM
      1    O       24.4110    4.5150    3.3550 O.3     2  LIG2       -0.3886
      2    C       27.9450    1.6300    3.4400 C.3     2  LIG2       -0.0289
      3    C       27.9880    0.1280    3.6530 C.3     2  LIG2       -0.0284
      4    C       26.8580    0.7250    2.8430 C.3     2  LIG2       -0.0319
      5    C       27.5290    2.6430    4.5380 C.3     2  LIG2       -0.0294
      6    C       26.6130    3.7470    3.9470 C.3     2  LIG2       -0.0090
      7    C       25.4000    0.8430    3.3470 C.3     2  LIG2       -0.0468
      8    C       28.6870    3.3700    5.2820 C.3     2  LIG2       -0.0404
      9    C       25.0830    3.4080    3.9340 C.3     2  LIG2        0.0664
     10    C       27.0240    5.0350    4.6830 C.3     2  LIG2       -0.0471
     11    C       24.7310    2.1980    3.0170 C.3     2  LIG2       -0.0237
     12    C       29.0710   -0.6420    2.8740 C.3     2  LIG2       -0.0593
     13    C       27.7430   -0.4930    5.0490 C.3     2  LIG2       -0.0593
     14    C       28.5140    4.8610    4.9640 C.3     2  LIG2       -0.0498
     15    C       30.1150    2.8580    4.9960 C.3     2  LIG2       -0.0621
     16    C       24.4410    3.2270    5.3330 C.3     2  LIG2       -0.0358
     17    H       28.6380    2.0690    2.7220 H       2  LIG2        0.0312
     18    H       26.8830    0.5160    1.7720 H       2  LIG2        0.0309
     19    H       26.9710    2.1260    5.3130 H       2  LIG2        0.0310
     20    H       26.9070    3.9060    2.9060 H       2  LIG2        0.0331
     21    H       24.8240    0.0590    2.8550 H       2  LIG2        0.0269
     22    H       25.3040    0.6350    4.4100 H       2  LIG2        0.0269
     23    H       28.5250    3.2510    6.3550 H       2  LIG2        0.0301
     24    H       26.8370    5.9270    4.0830 H       2  LIG2        0.0269
     25    H       26.4830    5.1540    5.6210 H       2  LIG2        0.0269
     26    H       24.9800    2.4410    1.9810 H       2  LIG2        0.0293
     27    H       23.6500    2.0470    3.0250 H       2  LIG2        0.0293
     28    H       28.7770   -1.6790    2.7140 H       2  LIG2        0.0235
     29    H       30.0170   -0.6410    3.4170 H       2  LIG2        0.0235
     30    H       29.2620   -0.2030    1.8940 H       2  LIG2        0.0235
     31    H       27.4290   -1.5330    4.9570 H       2  LIG2        0.0235
     32    H       26.9830    0.0110    5.6410 H       2  LIG2        0.0235
     33    H       28.6590   -0.4760    5.6400 H       2  LIG2        0.0235
     34    H       28.8390    5.4960    5.7890 H       2  LIG2        0.0268
     35    H       29.0990    5.1430    4.0870 H       2  LIG2        0.0268
     36    H       30.3970    2.9950    3.9510 H       2  LIG2        0.0233
     37    H       30.2080    1.7980    5.2330 H       2  LIG2        0.0233
     38    H       30.8480    3.3930    5.6010 H       2  LIG2        0.0233
     39    H       24.8690    2.3930    5.8870 H       2  LIG2        0.0257
     40    H       23.3690    3.0310    5.2570 H       2  LIG2        0.0257
     41    H       24.5460    4.1160    5.9550 H       2  LIG2        0.0257
     42    H       23.4680    4.3310    3.3550 H       2  LIG2        0.2102
@<TRIPOS>BOND
     1    18     4    1
     2    30    12    1
     3    26    11    1
     4    28    12    1
     5    17     2    1
     6     4     7    1
     7     4     2    1
     8     4     3    1
     9    21     7    1
    10    12    29    1
    11    12     3    1
    12    20     6    1
    13    11    27    1
    14    11     7    1
    15    11     9    1
    16     7    22    1
    17     1    42    1
    18     1     9    1
    19     2     3    1
    20     2     5    1
    21     3    13    1
    22     9     6    1
    23     9    16    1
    24     6     5    1
    25     6    10    1
    26    36    15    1
    27    24    10    1
    28    35    14    1
    29     5     8    1
    30     5    19    1
    31    10    14    1
    32    10    25    1
    33    31    13    1
    34    14     8    1
    35    14    34    1
    36    15    37    1
    37    15     8    1
    38    15    38    1
    39    13    33    1
    40    13    32    1
    41    40    16    1
    42     8    23    1
    43    16    39    1
    44    16    41    1
@<TRIPOS>MOLECULE
11996452_11_run_18.pdb
 42 44 0 0 0
SMALL
GASTEIGER

@<TRIPOS>ATOM
      1    O       27.7180    5.6910    5.3980 O.3     2  LIG2       -0.3886
      2    C       27.4720    1.2160    4.5400 C.3     2  LIG2       -0.0289
      3    C       28.4910    0.2700    3.9340 C.3     2  LIG2       -0.0284
      4    C       28.9640    1.3570    4.8760 C.3     2  LIG2       -0.0319
      5    C       26.7890    2.3650    3.7540 C.3     2  LIG2       -0.0294
      6    C       26.7080    3.6510    4.6200 C.3     2  LIG2       -0.0090
      7    C       29.7350    2.6190    4.4240 C.3     2  LIG2       -0.0468
      8    C       25.3500    2.0850    3.2300 C.3     2  LIG2       -0.0404
      9    C       27.9630    4.5860    4.5430 C.3     2  LIG2        0.0664
     10    C       25.3550    4.2870    4.2540 C.3     2  LIG2       -0.0471
     11    C       29.2580    3.9230    5.1050 C.3     2  LIG2       -0.0237
     12    C       28.4940   -1.1710    4.4770 C.3     2  LIG2       -0.0593
     13    C       28.8240    0.3090    2.4230 C.3     2  LIG2       -0.0593
     14    C       24.4460    3.1040    3.9350 C.3     2  LIG2       -0.0498
     15    C       24.8410    0.6340    3.3670 C.3     2  LIG2       -0.0621
     16    C       28.2370    5.2030    3.1480 C.3     2  LIG2       -0.0358
     17    H       26.8400    0.8450    5.3490 H       2  LIG2        0.0312
     18    H       29.3130    1.0160    5.8520 H       2  LIG2        0.0309
     19    H       27.3760    2.5950    2.8690 H       2  LIG2        0.0310
     20    H       26.6090    3.3460    5.6650 H       2  LIG2        0.0331
     21    H       30.7820    2.4690    4.6890 H       2  LIG2        0.0269
     22    H       29.7360    2.7470    3.3440 H       2  LIG2        0.0269
     23    H       25.3280    2.3210    2.1640 H       2  LIG2        0.0301
     24    H       24.9510    4.8870    5.0710 H       2  LIG2        0.0269
     25    H       25.4370    4.9360    3.3830 H       2  LIG2        0.0269
     26    H       29.1250    3.7060    6.1680 H       2  LIG2        0.0293
     27    H       30.0760    4.6430    5.0580 H       2  LIG2        0.0293
     28    H       29.4720   -1.6350    4.3550 H       2  LIG2        0.0235
     29    H       27.7630   -1.7870    3.9530 H       2  LIG2        0.0235
     30    H       28.2460   -1.2100    5.5390 H       2  LIG2        0.0235
     31    H       29.8030   -0.1300    2.2340 H       2  LIG2        0.0235
     32    H       28.8390    1.3050    1.9890 H       2  LIG2        0.0235
     33    H       28.0910   -0.2670    1.8570 H       2  LIG2        0.0235
     34    H       23.6060    3.4070    3.3090 H       2  LIG2        0.0268
     35    H       24.0310    2.6870    4.8540 H       2  LIG2        0.0268
     36    H       24.7650    0.3250    4.4100 H       2  LIG2        0.0233
     37    H       25.5020   -0.0650    2.8550 H       2  LIG2        0.0233
     38    H       23.8490    0.5280    2.9250 H       2  LIG2        0.0233
     39    H       28.4490    4.4490    2.3910 H       2  LIG2        0.0257
     40    H       29.0990    5.8720    3.1710 H       2  LIG2        0.0257
     41    H       27.3980    5.7960    2.7860 H       2  LIG2        0.0257
     42    H       27.4770    5.3570    6.2650 H       2  LIG2        0.2102
@<TRIPOS>BOND
     1    33    13    1
     2    32    13    1
     3    23     8    1
     4    31    13    1
     5    39    16    1
     6    13     3    1
     7    41    16    1
     8    37    15    1
     9    19     5    1
    10    38    15    1
    11    16    40    1
    12    16     9    1
    13     8    15    1
    14     8     5    1
    15     8    14    1
    16    34    14    1
    17    22     7    1
    18    15    36    1
    19    25    10    1
    20     5     2    1
    21     5     6    1
    22     3    12    1
    23     3     2    1
    24     3     4    1
    25    14    10    1
    26    14    35    1
    27    29    12    1
    28    10     6    1
    29    10    24    1
    30    28    12    1
    31     7    21    1
    32     7     4    1
    33     7    11    1
    34    12    30    1
    35     2     4    1
    36     2    17    1
    37     9     6    1
    38     9    11    1
    39     9     1    1
    40     6    20    1
    41     4    18    1
    42    27    11    1
    43    11    26    1
    44     1    42    1
@<TRIPOS>MOLECULE
11996452_11_run_4.pdb
 42 44 0 0 0
SMALL
GASTEIGER

@<TRIPOS>ATOM
      1    O       27.2610   -1.2730    3.6160 O.3     2  LIG2       -0.3886
      2    C       27.9120    2.9370    5.2490 C.3     2  LIG2       -0.0289
      3    C       27.4870    4.2860    4.6990 C.3     2  LIG2       -0.0284
      4    C       26.5460    3.1080    4.5690 C.3     2  LIG2       -0.0319
      5    C       28.9590    2.0200    4.5650 C.3     2  LIG2       -0.0294
      6    C       28.4980    0.5380    4.6040 C.3     2  LIG2       -0.0090
      7    C       26.2560    2.3740    3.2390 C.3     2  LIG2       -0.0468
      8    C       30.4000    2.0580    5.1520 C.3     2  LIG2       -0.0404
      9    C       27.5900    0.0910    3.4080 C.3     2  LIG2        0.0664
     10    C       29.7900   -0.2690    4.8250 C.3     2  LIG2       -0.0471
     11    C       26.2200    0.8330    3.3670 C.3     2  LIG2       -0.0237
     12    C       27.1160    5.3610    5.7370 C.3     2  LIG2       -0.0593
     13    C       28.1840    4.9050    3.4640 C.3     2  LIG2       -0.0593
     14    C       30.6760    0.6410    5.6710 C.3     2  LIG2       -0.0498
     15    C       30.6830    3.1480    6.2080 C.3     2  LIG2       -0.0621
     16    C       28.2700    0.1380    2.0160 C.3     2  LIG2       -0.0358
     17    H       27.8850    2.7890    6.3300 H       2  LIG2        0.0312
     18    H       25.6530    3.1460    5.1950 H       2  LIG2        0.0309
     19    H       29.0660    2.3090    3.5240 H       2  LIG2        0.0310
     20    H       27.9100    0.3930    5.5150 H       2  LIG2        0.0331
     21    H       25.2740    2.7030    2.8970 H       2  LIG2        0.0269
     22    H       26.9390    2.6610    2.4430 H       2  LIG2        0.0269
     23    H       31.0940    2.2380    4.3290 H       2  LIG2        0.0301
     24    H       29.5990   -1.2170    5.3310 H       2  LIG2        0.0269
     25    H       30.2890   -0.4980    3.8840 H       2  LIG2        0.0269
     26    H       25.6480    0.5940    4.2670 H       2  LIG2        0.0293
     27    H       25.6280    0.4430    2.5380 H       2  LIG2        0.0293
     28    H       26.4260    6.0920    5.3160 H       2  LIG2        0.0235
     29    H       28.0030    5.8960    6.0800 H       2  LIG2        0.0235
     30    H       26.6370    4.9330    6.6190 H       2  LIG2        0.0235
     31    H       27.5350    5.6380    2.9850 H       2  LIG2        0.0235
     32    H       28.4640    4.1880    2.6960 H       2  LIG2        0.0235
     33    H       29.0990    5.4180    3.7600 H       2  LIG2        0.0235
     34    H       31.7270    0.3680    5.5790 H       2  LIG2        0.0268
     35    H       30.4090    0.5530    6.7260 H       2  LIG2        0.0268
     36    H       30.0770    3.0150    7.1050 H       2  LIG2        0.0233
     37    H       30.4800    4.1430    5.8100 H       2  LIG2        0.0233
     38    H       31.7280    3.1280    6.5170 H       2  LIG2        0.0233
     39    H       28.5700    1.1460    1.7300 H       2  LIG2        0.0257
     40    H       27.5990   -0.2210    1.2330 H       2  LIG2        0.0257
     41    H       29.1600   -0.4880    1.9680 H       2  LIG2        0.0257
     42    H       26.7340   -1.5750    2.8730 H       2  LIG2        0.2102
@<TRIPOS>BOND
     1    40    16    1
     2    39    16    1
     3    41    16    1
     4    16     9    1
     5    22     7    1
     6    27    11    1
     7    32    13    1
     8    42     1    1
     9    21     7    1
    10    31    13    1
    11     7    11    1
    12     7     4    1
    13    11     9    1
    14    11    26    1
    15     9     1    1
    16     9     6    1
    17    13    33    1
    18    13     3    1
    19    19     5    1
    20    25    10    1
    21    23     8    1
    22     5     6    1
    23     5     8    1
    24     5     2    1
    25     4     3    1
    26     4    18    1
    27     4     2    1
    28     6    10    1
    29     6    20    1
    30     3     2    1
    31     3    12    1
    32    10    24    1
    33    10    14    1
    34     8    14    1
    35     8    15    1
    36     2    17    1
    37    28    12    1
    38    34    14    1
    39    14    35    1
    40    12    29    1
    41    12    30    1
    42    37    15    1
    43    15    38    1
    44    15    36    1
@<TRIPOS>MOLECULE
11996452_11_run_3.pdb
 42 44 0 0 0
SMALL
GASTEIGER

@<TRIPOS>ATOM
      1    O       28.6760    0.3380    3.2130 O.3     2  LIG2       -0.3886
      2    C       26.6150    4.3780    3.7100 C.3     2  LIG2       -0.0289
      3    C       27.0030    5.5880    4.5400 C.3     2  LIG2       -0.0284
      4    C       28.0870    4.7950    3.8430 C.3     2  LIG2       -0.0319
      5    C       26.1840    3.0190    4.3200 C.3     2  LIG2       -0.0294
      6    C       26.8260    1.8400    3.5410 C.3     2  LIG2       -0.0090
      7    C       29.0840    3.8650    4.5730 C.3     2  LIG2       -0.0468
      8    C       24.6530    2.7410    4.3750 C.3     2  LIG2       -0.0404
      9    C       28.2470    1.4070    4.0400 C.3     2  LIG2        0.0664
     10    C       25.7430    0.7460    3.5220 C.3     2  LIG2       -0.0471
     11    C       29.3260    2.5170    3.8530 C.3     2  LIG2       -0.0237
     12    C       26.6560    6.9650    3.9430 C.3     2  LIG2       -0.0593
     13    C       26.8610    5.5840    6.0810 C.3     2  LIG2       -0.0593
     14    C       24.4220    1.5090    3.4900 C.3     2  LIG2       -0.0498
     15    C       23.7270    3.9220    4.0130 C.3     2  LIG2       -0.0621
     16    C       28.2930    0.8500    5.4850 C.3     2  LIG2       -0.0358
     17    H       26.1650    4.5460    2.7310 H       2  LIG2        0.0312
     18    H       28.5670    5.2920    2.9980 H       2  LIG2        0.0309
     19    H       26.5230    2.9620    5.3510 H       2  LIG2        0.0310
     20    H       26.9400    2.1480    2.4990 H       2  LIG2        0.0331
     21    H       30.0370    4.3910    4.6240 H       2  LIG2        0.0269
     22    H       28.8090    3.6840    5.6100 H       2  LIG2        0.0269
     23    H       24.4000    2.4520    5.3970 H       2  LIG2        0.0301
     24    H       25.8410    0.0890    2.6560 H       2  LIG2        0.0269
     25    H       25.7860    0.1190    4.4120 H       2  LIG2        0.0269
     26    H       29.4480    2.7330    2.7890 H       2  LIG2        0.0293
     27    H       30.2930    2.1320    4.1820 H       2  LIG2        0.0293
     28    H       27.3220    7.7380    4.3250 H       2  LIG2        0.0235
     29    H       25.6330    7.2510    4.1910 H       2  LIG2        0.0235
     30    H       26.7380    6.9740    2.8550 H       2  LIG2        0.0235
     31    H       27.5170    6.3300    6.5280 H       2  LIG2        0.0235
     32    H       27.0990    4.6350    6.5540 H       2  LIG2        0.0235
     33    H       25.8390    5.8290    6.3700 H       2  LIG2        0.0235
     34    H       23.5990    0.8930    3.8530 H       2  LIG2        0.0268
     35    H       24.1810    1.8040    2.4670 H       2  LIG2        0.0268
     36    H       23.8610    4.2430    2.9790 H       2  LIG2        0.0233
     37    H       23.9130    4.7800    4.6590 H       2  LIG2        0.0233
     38    H       22.6790    3.6450    4.1320 H       2  LIG2        0.0233
     39    H       27.9890    1.5850    6.2290 H       2  LIG2        0.0257
     40    H       29.3020    0.5320    5.7570 H       2  LIG2        0.0257
     41    H       27.6520   -0.0220    5.6130 H       2  LIG2        0.0257
     42    H       28.6550    0.6320    2.3000 H       2  LIG2        0.2102
@<TRIPOS>BOND
     1    42     1    1
     2    35    14    1
     3    20     6    1
     4    24    10    1
     5    17     2    1
     6    26    11    1
     7    30    12    1
     8    36    15    1
     9    18     4    1
    10     1     9    1
    11    14    10    1
    12    14    34    1
    13    14     8    1
    14    10     6    1
    15    10    25    1
    16     6     9    1
    17     6     5    1
    18     2     4    1
    19     2     5    1
    20     2     3    1
    21     4     3    1
    22     4     7    1
    23    11     9    1
    24    11    27    1
    25    11     7    1
    26    12    29    1
    27    12    28    1
    28    12     3    1
    29    15    38    1
    30    15     8    1
    31    15    37    1
    32     9    16    1
    33     5     8    1
    34     5    19    1
    35     8    23    1
    36     3    13    1
    37     7    21    1
    38     7    22    1
    39    16    41    1
    40    16    40    1
    41    16    39    1
    42    13    33    1
    43    13    31    1
    44    13    32    1
@<TRIPOS>MOLECULE
11996452_11_run_17.pdb
 42 44 0 0 0
SMALL
GASTEIGER

@<TRIPOS>ATOM
      1    O       30.4890    2.8930    4.3350 O.3     2  LIG2       -0.3886
      2    C       26.0020    3.4550    3.7300 C.3     2  LIG2       -0.0289
      3    C       24.9750    4.1840    4.5770 C.3     2  LIG2       -0.0284
      4    C       26.3600    4.7770    4.4240 C.3     2  LIG2       -0.0319
      5    C       26.7370    2.1680    4.1880 C.3     2  LIG2       -0.0294
      6    C       28.2400    2.2290    3.8030 C.3     2  LIG2       -0.0090
      7    C       27.4250    4.7910    5.5450 C.3     2  LIG2       -0.0468
      8    C       26.1850    0.8220    3.6350 C.3     2  LIG2       -0.0404
      9    C       29.1710    2.9190    4.8570 C.3     2  LIG2        0.0664
     10    C       28.6020    0.7850    3.4080 C.3     2  LIG2       -0.0471
     11    C       28.8490    4.4310    5.0610 C.3     2  LIG2       -0.0237
     12    C       23.8320    4.8810    3.8150 C.3     2  LIG2       -0.0593
     13    C       24.4890    3.6040    5.9270 C.3     2  LIG2       -0.0593
     14    C       27.3220    0.2170    2.8020 C.3     2  LIG2       -0.0498
     15    C       24.8500    0.8930    2.8640 C.3     2  LIG2       -0.0621
     16    C       29.2590    2.1980    6.2260 C.3     2  LIG2       -0.0358
     17    H       25.9040    3.5030    2.6450 H       2  LIG2        0.0312
     18    H       26.4210    5.6830    3.8190 H       2  LIG2        0.0309
     19    H       26.6730    2.0810    5.2690 H       2  LIG2        0.0310
     20    H       28.3270    2.8090    2.8800 H       2  LIG2        0.0331
     21    H       27.4560    5.8030    5.9480 H       2  LIG2        0.0269
     22    H       27.1530    4.1620    6.3900 H       2  LIG2        0.0269
     23    H       26.0180    0.1530    4.4820 H       2  LIG2        0.0301
     24    H       29.4270    0.7520    2.6940 H       2  LIG2        0.0269
     25    H       28.8970    0.1920    4.2730 H       2  LIG2        0.0269
     26    H       29.0220    4.9710    4.1270 H       2  LIG2        0.0293
     27    H       29.5600    4.8530    5.7740 H       2  LIG2        0.0293
     28    H       23.4270    5.7120    4.3910 H       2  LIG2        0.0235
     29    H       23.0180    4.1840    3.6120 H       2  LIG2        0.0235
     30    H       24.1620    5.2810    2.8550 H       2  LIG2        0.0235
     31    H       24.0830    4.3930    6.5590 H       2  LIG2        0.0235
     32    H       25.2590    3.1040    6.5080 H       2  LIG2        0.0235
     33    H       23.6970    2.8720    5.7640 H       2  LIG2        0.0235
     34    H       27.3180   -0.8730    2.8350 H       2  LIG2        0.0268
     35    H       27.2380    0.5110    1.7550 H       2  LIG2        0.0268
     36    H       24.9330    1.4930    1.9570 H       2  LIG2        0.0233
     37    H       24.0610    1.3250    3.4810 H       2  LIG2        0.0233
     38    H       24.5200   -0.1030    2.5640 H       2  LIG2        0.0233
     39    H       28.3000    2.1560    6.7410 H       2  LIG2        0.0257
     40    H       29.9520    2.7070    6.8990 H       2  LIG2        0.0257
     41    H       29.6200    1.1740    6.1320 H       2  LIG2        0.0257
     42    H       30.5410    3.5180    3.6080 H       2  LIG2        0.2102
@<TRIPOS>BOND
     1    35    14    1
     2    36    15    1
     3    38    15    1
     4    17     2    1
     5    24    10    1
     6    14    34    1
     7    14    10    1
     8    14     8    1
     9    30    12    1
    10    15    37    1
    11    15     8    1
    12    20     6    1
    13    10     6    1
    14    10    25    1
    15    42     1    1
    16    29    12    1
    17     8     5    1
    18     8    23    1
    19     2     5    1
    20     2     4    1
    21     2     3    1
    22     6     5    1
    23     6     9    1
    24    12    28    1
    25    12     3    1
    26    18     4    1
    27    26    11    1
    28     5    19    1
    29     1     9    1
    30     4     3    1
    31     4     7    1
    32     3    13    1
    33     9    11    1
    34     9    16    1
    35    11     7    1
    36    11    27    1
    37     7    21    1
    38     7    22    1
    39    33    13    1
    40    13    32    1
    41    13    31    1
    42    41    16    1
    43    16    39    1
    44    16    40    1
@<TRIPOS>MOLECULE
11996452_11_run_14.pdb
 42 44 0 0 0
SMALL
GASTEIGER

@<TRIPOS>ATOM
      1    O       24.6630    7.7420    4.7750 O.3     2  LIG2       -0.3886
      2    C       26.6350    3.6340    5.0050 C.3     2  LIG2       -0.0289
      3    C       28.0460    3.1950    4.6570 C.3     2  LIG2       -0.0284
      4    C       27.8340    4.5400    5.3200 C.3     2  LIG2       -0.0319
      5    C       25.6040    4.1270    3.9560 C.3     2  LIG2       -0.0294
      6    C       24.8250    5.3590    4.4900 C.3     2  LIG2       -0.0090
      7    C       27.9820    5.8970    4.5930 C.3     2  LIG2       -0.0468
      8    C       24.5410    3.0890    3.4910 C.3     2  LIG2       -0.0404
      9    C       25.5010    6.7450    4.2120 C.3     2  LIG2        0.0664
     10    C       23.3910    5.1760    3.9610 C.3     2  LIG2       -0.0471
     11    C       26.8710    6.9160    4.9360 C.3     2  LIG2       -0.0237
     12    C       28.6470    2.0770    5.5290 C.3     2  LIG2       -0.0593
     13    C       28.5130    3.0840    3.1870 C.3     2  LIG2       -0.0593
     14    C       23.1850    3.6650    3.9190 C.3     2  LIG2       -0.0498
     15    C       24.7500    1.6340    3.9620 C.3     2  LIG2       -0.0621
     16    C       25.6330    7.1220    2.7150 C.3     2  LIG2       -0.0358
     17    H       26.1500    3.1760    5.8680 H       2  LIG2        0.0312
     18    H       28.1740    4.6140    6.3550 H       2  LIG2        0.0309
     19    H       26.1250    4.4280    3.0520 H       2  LIG2        0.0310
     20    H       24.7450    5.2610    5.5760 H       2  LIG2        0.0331
     21    H       28.9350    6.3260    4.9030 H       2  LIG2        0.0269
     22    H       28.0620    5.7880    3.5140 H       2  LIG2        0.0269
     23    H       24.5490    3.0660    2.4000 H       2  LIG2        0.0301
     24    H       22.6540    5.6580    4.6050 H       2  LIG2        0.0269
     25    H       23.2730    5.5940    2.9620 H       2  LIG2        0.0269
     26    H       26.7190    6.8810    6.0180 H       2  LIG2        0.0293
     27    H       27.2600    7.9150    4.7320 H       2  LIG2        0.0293
     28    H       29.7360    2.1280    5.5360 H       2  LIG2        0.0235
     29    H       28.3600    1.0930    5.1550 H       2  LIG2        0.0235
     30    H       28.3120    2.1380    6.5650 H       2  LIG2        0.0235
     31    H       29.5990    3.1430    3.1230 H       2  LIG2        0.0235
     32    H       28.1200    3.8540    2.5280 H       2  LIG2        0.0235
     33    H       28.2100    2.1260    2.7620 H       2  LIG2        0.0235
     34    H       22.3880    3.3930    3.2250 H       2  LIG2        0.0268
     35    H       22.8970    3.2950    4.9040 H       2  LIG2        0.0268
     36    H       24.6940    1.5440    5.0470 H       2  LIG2        0.0233
     37    H       25.7200    1.2530    3.6430 H       2  LIG2        0.0233
     38    H       23.9870    0.9770    3.5430 H       2  LIG2        0.0233
     39    H       26.2660    6.4290    2.1620 H       2  LIG2        0.0257
     40    H       26.0750    8.1130    2.5910 H       2  LIG2        0.0257
     41    H       24.6690    7.1510    2.2080 H       2  LIG2        0.0257
     42    H       24.5820    7.5740    5.7170 H       2  LIG2        0.2102
@<TRIPOS>BOND
     1    39    16    1
     2    41    16    1
     3    23     8    1
     4    32    13    1
     5    40    16    1
     6    16     9    1
     7    33    13    1
     8    25    10    1
     9    19     5    1
    10    31    13    1
    11    13     3    1
    12    34    14    1
    13     8    14    1
    14     8     5    1
    15     8    15    1
    16    22     7    1
    17    38    15    1
    18    37    15    1
    19    14    10    1
    20    14    35    1
    21     5     6    1
    22     5     2    1
    23    10     6    1
    24    10    24    1
    25    15    36    1
    26     9     6    1
    27     9     1    1
    28     9    11    1
    29     6    20    1
    30     7    21    1
    31     7    11    1
    32     7     4    1
    33     3     2    1
    34     3     4    1
    35     3    12    1
    36    27    11    1
    37     1    42    1
    38    11    26    1
    39     2     4    1
    40     2    17    1
    41    29    12    1
    42     4    18    1
    43    12    28    1
    44    12    30    1
@<TRIPOS>MOLECULE
11996452_11_run_10.pdb
 42 44 0 0 0
SMALL
GASTEIGER

@<TRIPOS>ATOM
      1    O       25.0910    2.8040    3.4100 O.3     2  LIG2       -0.3886
      2    C       28.9020    1.2750    5.3970 C.3     2  LIG2       -0.0289
      3    C       29.9600    2.0100    6.2000 C.3     2  LIG2       -0.0284
      4    C       28.5060    2.3930    6.3720 C.3     2  LIG2       -0.0319
      5    C       28.6560    1.5050    3.8830 C.3     2  LIG2       -0.0294
      6    C       27.1350    1.5480    3.5750 C.3     2  LIG2       -0.0090
      7    C       27.8850    3.7010    5.8270 C.3     2  LIG2       -0.0468
      8    C       29.2820    0.4600    2.9140 C.3     2  LIG2       -0.0404
      9    C       26.4670    2.9580    3.7150 C.3     2  LIG2        0.0664
     10    C       26.9920    0.8530    2.2100 C.3     2  LIG2       -0.0471
     11    C       26.4970    3.5100    5.1730 C.3     2  LIG2       -0.0237
     12    C       30.6130    1.2230    7.3520 C.3     2  LIG2       -0.0593
     13    C       30.9710    2.9600    5.5160 C.3     2  LIG2       -0.0593
     14    C       28.0990   -0.1970    2.1920 C.3     2  LIG2       -0.0498
     15    C       30.2460   -0.5680    3.5440 C.3     2  LIG2       -0.0621
     16    C       26.9860    4.0310    2.7230 C.3     2  LIG2       -0.0358
     17    H       28.6310    0.2640    5.7050 H       2  LIG2        0.0312
     18    H       28.0550    2.1170    7.3270 H       2  LIG2        0.0309
     19    H       29.0830    2.4600    3.5900 H       2  LIG2        0.0310
     20    H       26.6300    0.8900    4.2870 H       2  LIG2        0.0331
     21    H       27.7640    4.3770    6.6730 H       2  LIG2        0.0269
     22    H       28.5460    4.2260    5.1410 H       2  LIG2        0.0269
     23    H       29.8570    1.0010    2.1600 H       2  LIG2        0.0301
     24    H       26.0090    0.3930    2.0870 H       2  LIG2        0.0269
     25    H       27.1300    1.5500    1.3850 H       2  LIG2        0.0269
     26    H       25.9170    2.8510    5.8240 H       2  LIG2        0.0293
     27    H       25.9790    4.4710    5.2010 H       2  LIG2        0.0293
     28    H       30.9890    1.8940    8.1220 H       2  LIG2        0.0235
     29    H       31.4500    0.6240    6.9900 H       2  LIG2        0.0235
     30    H       29.9110    0.5390    7.8310 H       2  LIG2        0.0235
     31    H       31.3760    3.6720    6.2340 H       2  LIG2        0.0235
     32    H       30.5600    3.5440    4.6960 H       2  LIG2        0.0235
     33    H       31.8090    2.3940    5.1050 H       2  LIG2        0.0235
     34    H       28.3530   -0.4880    1.1720 H       2  LIG2        0.0268
     35    H       27.7740   -1.0980    2.7150 H       2  LIG2        0.0268
     36    H       29.7440   -1.2070    4.2710 H       2  LIG2        0.0233
     37    H       31.0760   -0.0730    4.0480 H       2  LIG2        0.0233
     38    H       30.6720   -1.2200    2.7800 H       2  LIG2        0.0233
     39    H       28.0450    4.2500    2.8590 H       2  LIG2        0.0257
     40    H       26.4550    4.9770    2.8460 H       2  LIG2        0.0257
     41    H       26.8490    3.7350    1.6840 H       2  LIG2        0.0257
     42    H       24.7210    2.1440    4.0010 H       2  LIG2        0.2102
@<TRIPOS>BOND
     1    34    14    1
     2    25    10    1
     3    41    16    1
     4    24    10    1
     5    23     8    1
     6    14    10    1
     7    14    35    1
     8    14     8    1
     9    10     6    1
    10    16    40    1
    11    16    39    1
    12    16     9    1
    13    38    15    1
    14     8    15    1
    15     8     5    1
    16     1     9    1
    17     1    42    1
    18    15    37    1
    19    15    36    1
    20     6     9    1
    21     6     5    1
    22     6    20    1
    23    19     5    1
    24     9    11    1
    25     5     2    1
    26    32    13    1
    27    33    13    1
    28    22     7    1
    29    11    27    1
    30    11    26    1
    31    11     7    1
    32     2    17    1
    33     2     3    1
    34     2     4    1
    35    13     3    1
    36    13    31    1
    37     7     4    1
    38     7    21    1
    39     3     4    1
    40     3    12    1
    41     4    18    1
    42    29    12    1
    43    12    30    1
    44    12    28    1
