@<TRIPOS>MOLECULE
11996452_2_run_3.pdb
 42 44 0 0 0
SMALL
GASTEIGER

@<TRIPOS>ATOM
      1    O       23.9080    4.0500    3.1050 O.3     2  LIG2       -0.3886
      2    C       27.2080    1.2350    4.6050 C.3     2  LIG2       -0.0289
      3    C       27.5330    0.3950    3.3820 C.3     2  LIG2       -0.0284
      4    C       26.1290    0.3450    3.9520 C.3     2  LIG2       -0.0319
      5    C       27.1310    2.7950    4.6660 C.3     2  LIG2       -0.0294
      6    C       26.1220    3.5980    3.8090 C.3     2  LIG2       -0.0090
      7    C       24.8930    0.9640    3.2630 C.3     2  LIG2       -0.0468
      8    C       28.4990    3.4750    4.4300 C.3     2  LIG2       -0.0404
      9    C       24.6060    3.4260    4.1710 C.3     2  LIG2        0.0664
     10    C       26.6720    5.0370    3.8820 C.3     2  LIG2       -0.0471
     11    C       24.1310    1.9430    4.1770 C.3     2  LIG2       -0.0237
     12    C       27.8190    0.9990    1.9880 C.3     2  LIG2       -0.0593
     13    C       28.4210   -0.8390    3.6340 C.3     2  LIG2       -0.0593
     14    C       28.1960    4.9070    3.9510 C.3     2  LIG2       -0.0498
     15    C       29.4430    3.4160    5.6460 C.3     2  LIG2       -0.0621
     16    C       24.1530    4.1150    5.4810 C.3     2  LIG2       -0.0358
     17    H       27.6270    0.8680    5.5430 H       2  LIG2        0.0312
     18    H       25.8610   -0.5880    4.4520 H       2  LIG2        0.0309
     19    H       26.8480    3.0190    5.6960 H       2  LIG2        0.0310
     20    H       26.2450    3.3130    2.7680 H       2  LIG2        0.0331
     21    H       25.1170    1.4160    2.2980 H       2  LIG2        0.0269
     22    H       24.2160    0.1430    3.0280 H       2  LIG2        0.0269
     23    H       29.0040    2.9680    3.6070 H       2  LIG2        0.0301
     24    H       26.3640    5.6330    3.0210 H       2  LIG2        0.0269
     25    H       26.3230    5.5580    4.7720 H       2  LIG2        0.0269
     26    H       23.0660    1.8930    3.9430 H       2  LIG2        0.0293
     27    H       24.1930    1.5510    5.1940 H       2  LIG2        0.0293
     28    H       27.6410    0.2560    1.2110 H       2  LIG2        0.0235
     29    H       28.8620    1.3060    1.9070 H       2  LIG2        0.0235
     30    H       27.2190    1.8590    1.7250 H       2  LIG2        0.0235
     31    H       28.2540   -1.6060    2.8780 H       2  LIG2        0.0235
     32    H       28.2270   -1.2970    4.6050 H       2  LIG2        0.0235
     33    H       29.4780   -0.5700    3.6110 H       2  LIG2        0.0235
     34    H       28.6210    5.6690    4.6060 H       2  LIG2        0.0268
     35    H       28.6290    5.0680    2.9620 H       2  LIG2        0.0268
     36    H       29.0120    3.9220    6.5100 H       2  LIG2        0.0233
     37    H       30.3980    3.8920    5.4240 H       2  LIG2        0.0233
     38    H       29.6520    2.3840    5.9330 H       2  LIG2        0.0233
     39    H       24.7180    3.7540    6.3400 H       2  LIG2        0.0257
     40    H       23.0990    3.9230    5.6850 H       2  LIG2        0.0257
     41    H       24.2640    5.1990    5.4430 H       2  LIG2        0.0257
     42    H       22.9670    4.0100    3.2930 H       2  LIG2        0.2102
@<TRIPOS>BOND
     1    28    12    1
     2    30    12    1
     3    29    12    1
     4    12     3    1
     5    21     7    1
     6    20     6    1
     7    31    13    1
     8    35    14    1
     9    24    10    1
    10    22     7    1
    11     1    42    1
    12     1     9    1
    13     7     4    1
    14     7    11    1
    15     3    13    1
    16     3     4    1
    17     3     2    1
    18    23     8    1
    19    33    13    1
    20    13    32    1
    21     6    10    1
    22     6     9    1
    23     6     5    1
    24    10    14    1
    25    10    25    1
    26    26    11    1
    27    14     8    1
    28    14    34    1
    29     4    18    1
    30     4     2    1
    31     9    11    1
    32     9    16    1
    33    11    27    1
    34     8     5    1
    35     8    15    1
    36     2     5    1
    37     2    17    1
    38     5    19    1
    39    37    15    1
    40    41    16    1
    41    16    40    1
    42    16    39    1
    43    15    38    1
    44    15    36    1
@<TRIPOS>MOLECULE
11996452_2_run_7.pdb
 42 44 0 0 0
SMALL
GASTEIGER

@<TRIPOS>ATOM
      1    O       25.3470    6.8920    5.0920 O.3     2  LIG2       -0.3886
      2    C       26.7820    3.1120    2.9190 C.3     2  LIG2       -0.0289
      3    C       27.9930    2.6830    3.7290 C.3     2  LIG2       -0.0284
      4    C       28.0090    4.0410    3.0520 C.3     2  LIG2       -0.0319
      5    C       25.3650    3.4560    3.4810 C.3     2  LIG2       -0.0294
      6    C       25.1410    4.6130    4.4860 C.3     2  LIG2       -0.0090
      7    C       27.9150    5.3840    3.8080 C.3     2  LIG2       -0.0468
      8    C       24.6500    2.2340    4.1020 C.3     2  LIG2       -0.0404
      9    C       25.3680    6.0660    3.9390 C.3     2  LIG2        0.0664
     10    C       23.7370    4.3190    5.0490 C.3     2  LIG2       -0.0471
     11    C       26.7690    6.2770    3.2930 C.3     2  LIG2       -0.0237
     12    C       27.9820    2.5470    5.2680 C.3     2  LIG2       -0.0593
     13    C       28.8710    1.5890    3.0910 C.3     2  LIG2       -0.0593
     14    C       23.6030    2.7930    5.0830 C.3     2  LIG2       -0.0498
     15    C       24.0670    1.2580    3.0630 C.3     2  LIG2       -0.0621
     16    C       24.2750    6.5920    2.9780 C.3     2  LIG2       -0.0358
     17    H       26.6660    2.6090    1.9590 H       2  LIG2        0.0312
     18    H       28.6810    4.1290    2.1980 H       2  LIG2        0.0309
     19    H       24.7800    3.7430    2.6050 H       2  LIG2        0.0310
     20    H       25.8080    4.4740    5.3320 H       2  LIG2        0.0331
     21    H       27.8730    5.2700    4.8900 H       2  LIG2        0.0269
     22    H       28.8490    5.9160    3.6270 H       2  LIG2        0.0269
     23    H       25.3720    1.6730    4.6980 H       2  LIG2        0.0301
     24    H       23.5990    4.7500    6.0430 H       2  LIG2        0.0269
     25    H       22.9530    4.7250    4.4130 H       2  LIG2        0.0269
     26    H       27.0660    7.3240    3.3820 H       2  LIG2        0.0293
     27    H       26.6940    6.1180    2.2160 H       2  LIG2        0.0293
     28    H       28.9960    2.6170    5.6620 H       2  LIG2        0.0235
     29    H       27.5870    1.5750    5.5670 H       2  LIG2        0.0235
     30    H       27.4030    3.2940    5.7940 H       2  LIG2        0.0235
     31    H       29.8960    1.6430    3.4570 H       2  LIG2        0.0235
     32    H       28.9120    1.6720    2.0050 H       2  LIG2        0.0235
     33    H       28.4850    0.5950    3.3230 H       2  LIG2        0.0235
     34    H       22.5870    2.4870    4.8330 H       2  LIG2        0.0268
     35    H       23.8020    2.4240    6.0910 H       2  LIG2        0.0268
     36    H       23.3190    1.7450    2.4360 H       2  LIG2        0.0233
     37    H       23.5900    0.4070    3.5490 H       2  LIG2        0.0233
     38    H       24.8460    0.8660    2.4080 H       2  LIG2        0.0233
     39    H       24.1640    5.9480    2.1050 H       2  LIG2        0.0257
     40    H       24.5170    7.5910    2.6120 H       2  LIG2        0.0257
     41    H       23.2990    6.6710    3.4570 H       2  LIG2        0.0257
     42    H       26.1470    6.7310    5.5960 H       2  LIG2        0.2102
@<TRIPOS>BOND
     1    17     2    1
     2    32    13    1
     3    39    16    1
     4    18     4    1
     5    27    11    1
     6    38    15    1
     7    36    15    1
     8    19     5    1
     9    40    16    1
    10     2     4    1
    11     2     5    1
    12     2     3    1
    13    16    41    1
    14    16     9    1
    15     4     3    1
    16     4     7    1
    17    15    37    1
    18    15     8    1
    19    13    33    1
    20    13    31    1
    21    13     3    1
    22    11    26    1
    23    11     7    1
    24    11     9    1
    25     5     8    1
    26     5     6    1
    27    22     7    1
    28     3    12    1
    29     7    21    1
    30     9     6    1
    31     9     1    1
    32     8    23    1
    33     8    14    1
    34    25    10    1
    35     6    10    1
    36     6    20    1
    37    34    14    1
    38    10    14    1
    39    10    24    1
    40    14    35    1
    41     1    42    1
    42    12    29    1
    43    12    28    1
    44    12    30    1
@<TRIPOS>MOLECULE
11996452_2_run_14.pdb
 42 44 0 0 0
SMALL
GASTEIGER

@<TRIPOS>ATOM
      1    O       28.1860   -1.3660    3.8550 O.3     2  LIG2       -0.3886
      2    C       28.0060    3.2200    3.9100 C.3     2  LIG2       -0.0289
      3    C       26.5170    3.5100    3.9760 C.3     2  LIG2       -0.0284
      4    C       27.0630    2.7520    2.7800 C.3     2  LIG2       -0.0319
      5    C       28.8040    2.2470    4.8370 C.3     2  LIG2       -0.0294
      6    C       28.4810    0.7340    4.9060 C.3     2  LIG2       -0.0090
      7    C       26.8110    1.2510    2.5210 C.3     2  LIG2       -0.0468
      8    C       28.8530    2.7210    6.3080 C.3     2  LIG2       -0.0404
      9    C       28.7920   -0.1050    3.6180 C.3     2  LIG2        0.0664
     10    C       29.2010    0.2830    6.1930 C.3     2  LIG2       -0.0471
     11    C       28.1170    0.4540    2.3320 C.3     2  LIG2       -0.0237
     12    C       25.5640    2.8400    4.9920 C.3     2  LIG2       -0.0593
     13    C       26.1090    4.9760    3.7310 C.3     2  LIG2       -0.0593
     14    C       29.1260    1.4680    7.1610 C.3     2  LIG2       -0.0498
     15    C       29.8460    3.8710    6.5600 C.3     2  LIG2       -0.0621
     16    C       30.2920   -0.3640    3.3400 C.3     2  LIG2       -0.0358
     17    H       28.6350    4.0810    3.6810 H       2  LIG2        0.0312
     18    H       27.0720    3.3070    1.8410 H       2  LIG2        0.0309
     19    H       29.8290    2.2880    4.4660 H       2  LIG2        0.0310
     20    H       27.4260    0.6130    5.1290 H       2  LIG2        0.0331
     21    H       26.1670    0.7850    3.2640 H       2  LIG2        0.0269
     22    H       26.2480    1.1790    1.5900 H       2  LIG2        0.0269
     23    H       27.8640    3.0850    6.5900 H       2  LIG2        0.0301
     24    H       28.7430   -0.6090    6.6230 H       2  LIG2        0.0269
     25    H       30.2480    0.0480    6.0080 H       2  LIG2        0.0269
     26    H       27.9400   -0.3570    1.6220 H       2  LIG2        0.0293
     27    H       28.8220    1.1060    1.8120 H       2  LIG2        0.0293
     28    H       24.5370    2.8770    4.6290 H       2  LIG2        0.0235
     29    H       25.5870    3.3650    5.9470 H       2  LIG2        0.0235
     30    H       25.7710    1.7990    5.2020 H       2  LIG2        0.0235
     31    H       25.0880    5.0430    3.3540 H       2  LIG2        0.0235
     32    H       26.7540    5.4690    3.0030 H       2  LIG2        0.0235
     33    H       26.1640    5.5550    4.6540 H       2  LIG2        0.0235
     34    H       30.0420    1.5500    7.7460 H       2  LIG2        0.0268
     35    H       28.3120    1.3170    7.8720 H       2  LIG2        0.0268
     36    H       30.8670    3.5760    6.3160 H       2  LIG2        0.0233
     37    H       29.8300    4.1790    7.6050 H       2  LIG2        0.0233
     38    H       29.5990    4.7460    5.9570 H       2  LIG2        0.0233
     39    H       30.8490    0.5690    3.2410 H       2  LIG2        0.0257
     40    H       30.4330   -0.9210    2.4120 H       2  LIG2        0.0257
     41    H       30.7690   -0.9520    4.1240 H       2  LIG2        0.0257
     42    H       28.5990   -1.7620    4.6260 H       2  LIG2        0.2102
@<TRIPOS>BOND
     1    22     7    1
     2    26    11    1
     3    27    11    1
     4    18     4    1
     5    11     7    1
     6    11     9    1
     7    40    16    1
     8     7     4    1
     9     7    21    1
    10     4     2    1
    11     4     3    1
    12    32    13    1
    13    39    16    1
    14    16     9    1
    15    16    41    1
    16    31    13    1
    17     9     1    1
    18     9     6    1
    19    17     2    1
    20    13     3    1
    21    13    33    1
    22     1    42    1
    23     2     3    1
    24     2     5    1
    25     3    12    1
    26    19     5    1
    27    28    12    1
    28     5     6    1
    29     5     8    1
    30     6    20    1
    31     6    10    1
    32    12    30    1
    33    12    29    1
    34    38    15    1
    35    25    10    1
    36    10    24    1
    37    10    14    1
    38     8    15    1
    39     8    23    1
    40     8    14    1
    41    36    15    1
    42    15    37    1
    43    14    34    1
    44    14    35    1
@<TRIPOS>MOLECULE
11996452_2_run_12.pdb
 42 44 0 0 0
SMALL
GASTEIGER

@<TRIPOS>ATOM
      1    O       27.2780   -0.2090    4.4940 O.3     2  LIG2       -0.3886
      2    C       25.4630    3.8160    3.2390 C.3     2  LIG2       -0.0289
      3    C       24.3340    4.0150    4.2350 C.3     2  LIG2       -0.0284
      4    C       24.2960    2.8080    3.3170 C.3     2  LIG2       -0.0319
      5    C       26.9470    3.4580    3.5770 C.3     2  LIG2       -0.0294
      6    C       27.3260    2.1510    4.3150 C.3     2  LIG2       -0.0090
      7    C       24.5260    1.3550    3.7910 C.3     2  LIG2       -0.0468
      8    C       27.6780    4.5850    4.3430 C.3     2  LIG2       -0.0404
      9    C       27.0960    0.8130    3.5280 C.3     2  LIG2        0.0664
     10    C       28.7720    2.4180    4.7780 C.3     2  LIG2       -0.0471
     11    C       25.6410    0.6430    3.0010 C.3     2  LIG2       -0.0237
     12    C       24.5120    3.8650    5.7630 C.3     2  LIG2       -0.0593
     13    C       23.3490    5.1550    3.9100 C.3     2  LIG2       -0.0593
     14    C       28.8490    3.9160    5.0880 C.3     2  LIG2       -0.0498
     15    C       28.1040    5.7680    3.4540 C.3     2  LIG2       -0.0621
     16    C       28.0940    0.5400    2.3780 C.3     2  LIG2       -0.0358
     17    H       25.4520    4.4940    2.3850 H       2  LIG2        0.0312
     18    H       23.5360    2.8400    2.5350 H       2  LIG2        0.0309
     19    H       27.4400    3.3740    2.6070 H       2  LIG2        0.0310
     20    H       26.7530    2.0910    5.2350 H       2  LIG2        0.0331
     21    H       24.6840    1.2700    4.8640 H       2  LIG2        0.0269
     22    H       23.5990    0.8120    3.6080 H       2  LIG2        0.0269
     23    H       27.0060    4.9820    5.1050 H       2  LIG2        0.0301
     24    H       29.0360    1.8200    5.6510 H       2  LIG2        0.0269
     25    H       29.4950    2.1840    3.9980 H       2  LIG2        0.0269
     26    H       25.3970   -0.4180    2.9190 H       2  LIG2        0.0293
     27    H       25.5890    1.0030    1.9710 H       2  LIG2        0.0293
     28    H       23.5510    3.6630    6.2370 H       2  LIG2        0.0235
     29    H       24.8990    4.7860    6.1990 H       2  LIG2        0.0235
     30    H       25.1740    3.0680    6.0740 H       2  LIG2        0.0235
     31    H       22.3740    4.9730    4.3620 H       2  LIG2        0.0235
     32    H       23.1900    5.2720    2.8370 H       2  LIG2        0.0235
     33    H       23.7200    6.1100    4.2860 H       2  LIG2        0.0235
     34    H       29.8180    4.3230    4.7970 H       2  LIG2        0.0268
     35    H       28.7500    4.0800    6.1610 H       2  LIG2        0.0268
     36    H       28.7960    5.4520    2.6730 H       2  LIG2        0.0233
     37    H       28.5980    6.5420    4.0420 H       2  LIG2        0.0233
     38    H       27.2420    6.2290    2.9690 H       2  LIG2        0.0233
     39    H       28.0820    1.3390    1.6370 H       2  LIG2        0.0257
     40    H       27.8520   -0.3870    1.8550 H       2  LIG2        0.0257
     41    H       29.1200    0.4310    2.7310 H       2  LIG2        0.0257
     42    H       28.2060   -0.2340    4.7390 H       2  LIG2        0.2102
@<TRIPOS>BOND
     1    39    16    1
     2    40    16    1
     3    27    11    1
     4    16    41    1
     5    16     9    1
     6    17     2    1
     7    18     4    1
     8    19     5    1
     9    36    15    1
    10    32    13    1
    11    26    11    1
    12    38    15    1
    13    11     9    1
    14    11     7    1
    15     2     4    1
    16     2     5    1
    17     2     3    1
    18     4     7    1
    19     4     3    1
    20    15    37    1
    21    15     8    1
    22     9     6    1
    23     9     1    1
    24     5     6    1
    25     5     8    1
    26    22     7    1
    27     7    21    1
    28    13     3    1
    29    13    33    1
    30    13    31    1
    31    25    10    1
    32     3    12    1
    33     6    10    1
    34     6    20    1
    35     8    14    1
    36     8    23    1
    37     1    42    1
    38    10    14    1
    39    10    24    1
    40    34    14    1
    41    14    35    1
    42    12    30    1
    43    12    29    1
    44    12    28    1
@<TRIPOS>MOLECULE
11996452_2_run_18.pdb
 42 44 0 0 0
SMALL
GASTEIGER

@<TRIPOS>ATOM
      1    O       25.9500    4.6400    5.5720 O.3     2  LIG2       -0.3886
      2    C       27.8210    1.6410    2.6430 C.3     2  LIG2       -0.0289
      3    C       28.3880    0.5690    3.5580 C.3     2  LIG2       -0.0284
      4    C       28.9110    1.9880    3.6810 C.3     2  LIG2       -0.0319
      5    C       26.3690    2.2190    2.6800 C.3     2  LIG2       -0.0294
      6    C       25.8070    2.9420    3.9290 C.3     2  LIG2       -0.0090
      7    C       28.6080    2.9190    4.8760 C.3     2  LIG2       -0.0468
      8    C       25.2950    1.1740    2.2970 C.3     2  LIG2       -0.0404
      9    C       26.4550    4.3260    4.2830 C.3     2  LIG2        0.0664
     10    C       24.2880    2.9590    3.6670 C.3     2  LIG2       -0.0471
     11    C       28.0030    4.2670    4.4400 C.3     2  LIG2       -0.0237
     12    C       27.5780   -0.0960    4.6930 C.3     2  LIG2       -0.0593
     13    C       29.3280   -0.4520    2.8870 C.3     2  LIG2       -0.0593
     14    C       23.9710    1.6640    2.9130 C.3     2  LIG2       -0.0498
     15    C       25.2090    0.8930    0.7860 C.3     2  LIG2       -0.0621
     16    C       26.0770    5.4970    3.3450 C.3     2  LIG2       -0.0358
     17    H       28.1500    1.5860    1.6050 H       2  LIG2        0.0312
     18    H       29.9300    2.1430    3.3230 H       2  LIG2        0.0309
     19    H       26.3520    2.9790    1.8970 H       2  LIG2        0.0310
     20    H       25.9270    2.2940    4.7910 H       2  LIG2        0.0331
     21    H       28.0080    2.4470    5.6510 H       2  LIG2        0.0269
     22    H       29.5610    3.1310    5.3610 H       2  LIG2        0.0269
     23    H       25.5390    0.2290    2.7850 H       2  LIG2        0.0301
     24    H       23.7170    3.0260    4.5950 H       2  LIG2        0.0269
     25    H       23.9930    3.8050    3.0490 H       2  LIG2        0.0269
     26    H       28.3370    5.0470    5.1270 H       2  LIG2        0.0293
     27    H       28.4690    4.5400    3.4900 H       2  LIG2        0.0293
     28    H       28.2500   -0.5180    5.4400 H       2  LIG2        0.0235
     29    H       26.9720   -0.9150    4.3060 H       2  LIG2        0.0235
     30    H       26.9080    0.5620    5.2290 H       2  LIG2        0.0235
     31    H       30.0220   -0.8820    3.6100 H       2  LIG2        0.0235
     32    H       29.9270   -0.0050    2.0930 H       2  LIG2        0.0235
     33    H       28.7600   -1.2700    2.4410 H       2  LIG2        0.0235
     34    H       23.1960    1.8300    2.1650 H       2  LIG2        0.0268
     35    H       23.5830    0.9150    3.6050 H       2  LIG2        0.0268
     36    H       24.9500    1.7930    0.2270 H       2  LIG2        0.0233
     37    H       24.4520    0.1390    0.5700 H       2  LIG2        0.0233
     38    H       26.1590    0.5220    0.3980 H       2  LIG2        0.0233
     39    H       26.3490    5.2860    2.3100 H       2  LIG2        0.0257
     40    H       26.5910    6.4160    3.6320 H       2  LIG2        0.0257
     41    H       25.0120    5.7240    3.3670 H       2  LIG2        0.0257
     42    H       26.1860    5.5470    5.7780 H       2  LIG2        0.2102
@<TRIPOS>BOND
     1    36    15    1
     2    38    15    1
     3    37    15    1
     4    15     8    1
     5    17     2    1
     6    19     5    1
     7    32    13    1
     8    34    14    1
     9     8     5    1
    10     8    23    1
    11     8    14    1
    12    39    16    1
    13    33    13    1
    14     2     5    1
    15     2     3    1
    16     2     4    1
    17     5     6    1
    18    13     3    1
    19    13    31    1
    20    14    35    1
    21    14    10    1
    22    25    10    1
    23    18     4    1
    24    16    41    1
    25    16    40    1
    26    16     9    1
    27    27    11    1
    28     3     4    1
    29     3    12    1
    30    10     6    1
    31    10    24    1
    32     4     7    1
    33     6     9    1
    34     6    20    1
    35     9    11    1
    36     9     1    1
    37    29    12    1
    38    11     7    1
    39    11    26    1
    40    12    30    1
    41    12    28    1
    42     7    22    1
    43     7    21    1
    44     1    42    1
@<TRIPOS>MOLECULE
11996452_2_run_14.pdb
 42 44 0 0 0
SMALL
GASTEIGER

@<TRIPOS>ATOM
      1    O       30.8320    2.6660    4.8550 O.3     2  LIG2       -0.3886
      2    C       26.4200    1.4480    4.5140 C.3     2  LIG2       -0.0289
      3    C       25.9230    2.2660    3.3350 C.3     2  LIG2       -0.0284
      4    C       26.4530    2.9920    4.5570 C.3     2  LIG2       -0.0319
      5    C       27.6980    0.5490    4.5470 C.3     2  LIG2       -0.0294
      6    C       29.1140    1.1310    4.3140 C.3     2  LIG2       -0.0090
      7    C       27.7910    3.7610    4.5920 C.3     2  LIG2       -0.0468
      8    C       27.5990   -0.6730    3.6050 C.3     2  LIG2       -0.0404
      9    C       29.6630    2.0960    5.4220 C.3     2  LIG2        0.0664
     10    C       29.9640   -0.1250    4.0330 C.3     2  LIG2       -0.0471
     11    C       28.7160    3.2920    5.7310 C.3     2  LIG2       -0.0237
     12    C       26.6550    2.3300    1.9760 C.3     2  LIG2       -0.0593
     13    C       24.3950    2.2880    3.1330 C.3     2  LIG2       -0.0593
     14    C       29.0450   -1.1060    3.3000 C.3     2  LIG2       -0.0498
     15    C       26.7130   -1.8090    4.1490 C.3     2  LIG2       -0.0621
     16    C       30.0820    1.4150    6.7470 C.3     2  LIG2       -0.0358
     17    H       25.6400    0.9710    5.1080 H       2  LIG2        0.0312
     18    H       25.7000    3.5050    5.1580 H       2  LIG2        0.0309
     19    H       27.7330    0.1530    5.5630 H       2  LIG2        0.0310
     20    H       29.1170    1.6760    3.3750 H       2  LIG2        0.0331
     21    H       28.3120    3.7680    3.6360 H       2  LIG2        0.0269
     22    H       27.5510    4.8080    4.7780 H       2  LIG2        0.0269
     23    H       27.1610   -0.3500    2.6590 H       2  LIG2        0.0301
     24    H       30.8490    0.1090    3.4390 H       2  LIG2        0.0269
     25    H       30.3110   -0.5910    4.9540 H       2  LIG2        0.0269
     26    H       29.2980    4.1430    6.0910 H       2  LIG2        0.0293
     27    H       28.0800    3.0340    6.5800 H       2  LIG2        0.0293
     28    H       26.3710    3.2330    1.4350 H       2  LIG2        0.0235
     29    H       26.3810    1.4800    1.3490 H       2  LIG2        0.0235
     30    H       27.7350    2.3400    2.0330 H       2  LIG2        0.0235
     31    H       24.0810    3.1890    2.6050 H       2  LIG2        0.0235
     32    H       23.8520    2.2620    4.0780 H       2  LIG2        0.0235
     33    H       24.0660    1.4260    2.5500 H       2  LIG2        0.0235
     34    H       29.2500   -2.1320    3.6060 H       2  LIG2        0.0268
     35    H       29.2300   -1.0570    2.2260 H       2  LIG2        0.0268
     36    H       27.0990   -2.1990    5.0910 H       2  LIG2        0.0233
     37    H       26.6620   -2.6380    3.4420 H       2  LIG2        0.0233
     38    H       25.6920   -1.4660    4.3230 H       2  LIG2        0.0233
     39    H       29.2530    0.8690    7.1980 H       2  LIG2        0.0257
     40    H       30.4190    2.1500    7.4800 H       2  LIG2        0.0257
     41    H       30.9060    0.7150    6.6160 H       2  LIG2        0.0257
     42    H       30.5750    3.2040    4.1030 H       2  LIG2        0.2102
@<TRIPOS>BOND
     1    29    12    1
     2    28    12    1
     3    12    30    1
     4    12     3    1
     5    35    14    1
     6    33    13    1
     7    31    13    1
     8    23     8    1
     9    13     3    1
    10    13    32    1
    11    14     8    1
    12    14    34    1
    13    14    10    1
    14     3     2    1
    15     3     4    1
    16    20     6    1
    17    24    10    1
    18    37    15    1
    19     8    15    1
    20     8     5    1
    21    21     7    1
    22    10     6    1
    23    10    25    1
    24    42     1    1
    25    15    38    1
    26    15    36    1
    27     6     5    1
    28     6     9    1
    29     2     5    1
    30     2     4    1
    31     2    17    1
    32     5    19    1
    33     4     7    1
    34     4    18    1
    35     7    22    1
    36     7    11    1
    37     1     9    1
    38     9    11    1
    39     9    16    1
    40    11    26    1
    41    11    27    1
    42    41    16    1
    43    16    39    1
    44    16    40    1
@<TRIPOS>MOLECULE
11996452_2_run_22.pdb
 42 44 0 0 0
SMALL
GASTEIGER

@<TRIPOS>ATOM
      1    O       29.3340    0.4890    5.7990 O.3     2  LIG2       -0.3886
      2    C       26.2830    1.9710    2.7070 C.3     2  LIG2       -0.0289
      3    C       24.9540    1.8180    3.4270 C.3     2  LIG2       -0.0284
      4    C       25.7990    0.5820    3.1780 C.3     2  LIG2       -0.0319
      5    C       27.5610    2.6810    3.2590 C.3     2  LIG2       -0.0294
      6    C       28.2770    2.1940    4.5430 C.3     2  LIG2       -0.0090
      7    C       26.5470   -0.1900    4.2860 C.3     2  LIG2       -0.0468
      8    C       27.3690    4.2030    3.4520 C.3     2  LIG2       -0.0404
      9    C       28.9880    0.7980    4.4580 C.3     2  LIG2        0.0664
     10    C       29.1810    3.3880    4.9110 C.3     2  LIG2       -0.0471
     11    C       28.0500   -0.3510    3.9870 C.3     2  LIG2       -0.0237
     12    C       24.6960    2.3470    4.8550 C.3     2  LIG2       -0.0593
     13    C       23.6970    1.9770    2.5500 C.3     2  LIG2       -0.0593
     14    C       28.4170    4.6460    4.4900 C.3     2  LIG2       -0.0498
     15    C       27.4150    5.0090    2.1410 C.3     2  LIG2       -0.0621
     16    C       30.2950    0.7680    3.6290 C.3     2  LIG2       -0.0358
     17    H       26.2090    2.1650    1.6360 H       2  LIG2        0.0312
     18    H       25.4080   -0.1070    2.4280 H       2  LIG2        0.0309
     19    H       28.3070    2.5620    2.4710 H       2  LIG2        0.0310
     20    H       27.5520    2.1440    5.3490 H       2  LIG2        0.0331
     21    H       26.3820    0.2150    5.2830 H       2  LIG2        0.0269
     22    H       26.1140   -1.1900    4.3250 H       2  LIG2        0.0269
     23    H       26.3890    4.3770    3.9000 H       2  LIG2        0.0301
     24    H       29.4160    3.4060    5.9770 H       2  LIG2        0.0269
     25    H       30.1290    3.3580    4.3750 H       2  LIG2        0.0269
     26    H       28.3950   -1.3030    4.3950 H       2  LIG2        0.0293
     27    H       28.1540   -0.4780    2.9070 H       2  LIG2        0.0293
     28    H       23.8630    1.8110    5.3120 H       2  LIG2        0.0235
     29    H       24.4260    3.4030    4.8330 H       2  LIG2        0.0235
     30    H       25.5270    2.2500    5.5410 H       2  LIG2        0.0235
     31    H       22.8490    1.4400    2.9770 H       2  LIG2        0.0235
     32    H       23.8450    1.5940    1.5400 H       2  LIG2        0.0235
     33    H       23.4150    3.0270    2.4590 H       2  LIG2        0.0235
     34    H       29.0990    5.4030    4.1010 H       2  LIG2        0.0268
     35    H       27.9210    5.0880    5.3550 H       2  LIG2        0.0268
     36    H       28.3770    4.8990    1.6400 H       2  LIG2        0.0233
     37    H       27.2580    6.0710    2.3280 H       2  LIG2        0.0233
     38    H       26.6390    4.6810    1.4470 H       2  LIG2        0.0233
     39    H       30.1260    1.0900    2.6010 H       2  LIG2        0.0257
     40    H       30.7130   -0.2400    3.5860 H       2  LIG2        0.0257
     41    H       31.0740    1.4030    4.0510 H       2  LIG2        0.0257
     42    H       29.7640   -0.3690    5.8120 H       2  LIG2        0.2102
@<TRIPOS>BOND
     1    38    15    1
     2    32    13    1
     3    17     2    1
     4    36    15    1
     5    15    37    1
     6    15     8    1
     7    18     4    1
     8    33    13    1
     9    19     5    1
    10    13    31    1
    11    13     3    1
    12    39    16    1
    13     2     4    1
    14     2     5    1
    15     2     3    1
    16    27    11    1
    17     4     3    1
    18     4     7    1
    19     5     8    1
    20     5     6    1
    21     3    12    1
    22     8    23    1
    23     8    14    1
    24    40    16    1
    25    16    41    1
    26    16     9    1
    27    11     7    1
    28    11    26    1
    29    11     9    1
    30    34    14    1
    31     7    22    1
    32     7    21    1
    33    25    10    1
    34     9     6    1
    35     9     1    1
    36    14    10    1
    37    14    35    1
    38     6    10    1
    39     6    20    1
    40    29    12    1
    41    12    28    1
    42    12    30    1
    43    10    24    1
    44     1    42    1
@<TRIPOS>MOLECULE
11996452_2_run_3.pdb
 42 44 0 0 0
SMALL
GASTEIGER

@<TRIPOS>ATOM
      1    O       27.5990   -0.3870    2.3550 O.3     2  LIG2       -0.3886
      2    C       27.2000    3.6100    4.5750 C.3     2  LIG2       -0.0289
      3    C       27.7670    4.6150    3.5880 C.3     2  LIG2       -0.0284
      4    C       28.6670    3.5080    4.1040 C.3     2  LIG2       -0.0319
      5    C       26.1120    2.5280    4.2760 C.3     2  LIG2       -0.0294
      6    C       26.3340    1.4150    3.2220 C.3     2  LIG2       -0.0090
      7    C       29.1500    2.3170    3.2480 C.3     2  LIG2       -0.0468
      8    C       24.7320    3.1380    3.9400 C.3     2  LIG2       -0.0404
      9    C       27.4270    0.3420    3.5600 C.3     2  LIG2        0.0664
     10    C       24.9100    0.8730    2.9850 C.3     2  LIG2       -0.0471
     11    C       28.8200    0.9540    3.8860 C.3     2  LIG2       -0.0237
     12    C       27.3390    4.6850    2.1050 C.3     2  LIG2       -0.0593
     13    C       28.0270    6.0280    4.1470 C.3     2  LIG2       -0.0593
     14    C       23.9670    2.0700    3.1360 C.3     2  LIG2       -0.0498
     15    C       23.9630    3.6560    5.1700 C.3     2  LIG2       -0.0621
     16    C       27.0420   -0.6750    4.6600 C.3     2  LIG2       -0.0358
     17    H       27.0480    3.9890    5.5860 H       2  LIG2        0.0312
     18    H       29.4510    3.8270    4.7930 H       2  LIG2        0.0309
     19    H       25.9910    1.9890    5.2170 H       2  LIG2        0.0310
     20    H       26.6090    1.8770    2.2790 H       2  LIG2        0.0331
     21    H       28.8120    2.3630    2.2140 H       2  LIG2        0.0269
     22    H       30.2350    2.3930    3.1820 H       2  LIG2        0.0269
     23    H       24.8790    3.9890    3.2730 H       2  LIG2        0.0301
     24    H       24.8100    0.4120    2.0000 H       2  LIG2        0.0269
     25    H       24.6380    0.1170    3.7200 H       2  LIG2        0.0269
     26    H       29.6080    0.2420    3.6320 H       2  LIG2        0.0293
     27    H       28.9150    1.0720    4.9680 H       2  LIG2        0.0293
     28    H       28.1110    5.1750    1.5110 H       2  LIG2        0.0235
     29    H       26.4260    5.2700    1.9930 H       2  LIG2        0.0235
     30    H       27.1580    3.7290    1.6310 H       2  LIG2        0.0235
     31    H       28.8060    6.5380    3.5800 H       2  LIG2        0.0235
     32    H       28.3490    6.0080    5.1890 H       2  LIG2        0.0235
     33    H       27.1240    6.6380    4.1010 H       2  LIG2        0.0235
     34    H       23.0340    1.7710    3.6150 H       2  LIG2        0.0268
     35    H       23.7030    2.4630    2.1530 H       2  LIG2        0.0268
     36    H       23.7610    2.8540    5.8810 H       2  LIG2        0.0233
     37    H       23.0070    4.0910    4.8800 H       2  LIG2        0.0233
     38    H       24.5280    4.4290    5.6930 H       2  LIG2        0.0233
     39    H       26.7980   -0.1780    5.6000 H       2  LIG2        0.0257
     40    H       27.8620   -1.3660    4.8650 H       2  LIG2        0.0257
     41    H       26.1870   -1.2910    4.3810 H       2  LIG2        0.0257
     42    H       27.9550    0.2050    1.6890 H       2  LIG2        0.2102
@<TRIPOS>BOND
     1    28    12    1
     2    30    12    1
     3    42     1    1
     4    29    12    1
     5    24    10    1
     6    12     3    1
     7    35    14    1
     8    21     7    1
     9    20     6    1
    10     1     9    1
    11    10    14    1
    12    10     6    1
    13    10    25    1
    14    14    34    1
    15    14     8    1
    16    22     7    1
    17     6     9    1
    18     6     5    1
    19     7    11    1
    20     7     4    1
    21    23     8    1
    22     9    11    1
    23     9    16    1
    24    31    13    1
    25     3     4    1
    26     3    13    1
    27     3     2    1
    28    26    11    1
    29    11    27    1
    30     8     5    1
    31     8    15    1
    32    33    13    1
    33     4     2    1
    34     4    18    1
    35    13    32    1
    36     5     2    1
    37     5    19    1
    38    41    16    1
    39     2    17    1
    40    16    40    1
    41    16    39    1
    42    37    15    1
    43    15    38    1
    44    15    36    1
@<TRIPOS>MOLECULE
11996452_2_run_22.pdb
 42 44 0 0 0
SMALL
GASTEIGER

@<TRIPOS>ATOM
      1    O       29.9580    1.3140    3.5560 O.3     2  LIG2       -0.3886
      2    C       25.7620    2.8530    4.6000 C.3     2  LIG2       -0.0289
      3    C       25.8820    4.3550    4.4030 C.3     2  LIG2       -0.0284
      4    C       26.7600    3.6800    5.4410 C.3     2  LIG2       -0.0319
      5    C       26.1880    1.7470    3.5820 C.3     2  LIG2       -0.0294
      6    C       27.6530    1.5980    3.1010 C.3     2  LIG2       -0.0090
      7    C       28.2840    3.4860    5.2880 C.3     2  LIG2       -0.0468
      8    C       25.3350    1.7540    2.2930 C.3     2  LIG2       -0.0404
      9    C       28.6950    1.1280    4.1760 C.3     2  LIG2        0.0664
     10    C       27.5200    0.6990    1.8550 C.3     2  LIG2       -0.0471
     11    C       28.7150    2.0160    5.4540 C.3     2  LIG2       -0.0237
     12    C       26.4810    5.0000    3.1340 C.3     2  LIG2       -0.0593
     13    C       24.7080    5.1960    4.9410 C.3     2  LIG2       -0.0593
     14    C       26.1830    1.0680    1.2050 C.3     2  LIG2       -0.0498
     15    C       23.9350    1.1360    2.4680 C.3     2  LIG2       -0.0621
     16    C       28.6010   -0.3620    4.5860 C.3     2  LIG2       -0.0358
     17    H       24.8590    2.5250    5.1170 H       2  LIG2        0.0312
     18    H       26.5030    3.8930    6.4790 H       2  LIG2        0.0309
     19    H       25.9730    0.8050    4.0890 H       2  LIG2        0.0310
     20    H       27.9910    2.5530    2.7130 H       2  LIG2        0.0331
     21    H       28.6860    3.9160    4.3720 H       2  LIG2        0.0269
     22    H       28.7580    4.0570    6.0870 H       2  LIG2        0.0269
     23    H       25.1910    2.7870    1.9750 H       2  LIG2        0.0301
     24    H       28.3500    0.8430    1.1610 H       2  LIG2        0.0269
     25    H       27.5030   -0.3570    2.1190 H       2  LIG2        0.0269
     26    H       29.7060    1.9840    5.9120 H       2  LIG2        0.0293
     27    H       28.0650    1.5710    6.2090 H       2  LIG2        0.0293
     28    H       26.8260    6.0110    3.3500 H       2  LIG2        0.0235
     29    H       25.7290    5.0770    2.3480 H       2  LIG2        0.0235
     30    H       27.3270    4.4790    2.7060 H       2  LIG2        0.0235
     31    H       25.0270    6.2110    5.1780 H       2  LIG2        0.0235
     32    H       24.2770    4.7730    5.8490 H       2  LIG2        0.0235
     33    H       23.9060    5.2610    4.2040 H       2  LIG2        0.0235
     34    H       25.6980    0.1840    0.7890 H       2  LIG2        0.0268
     35    H       26.3490    1.7540    0.3740 H       2  LIG2        0.0268
     36    H       23.9960    0.0900    2.7710 H       2  LIG2        0.0233
     37    H       23.3680    1.1800    1.5380 H       2  LIG2        0.0233
     38    H       23.3600    1.6700    3.2270 H       2  LIG2        0.0233
     39    H       27.6160   -0.6070    4.9840 H       2  LIG2        0.0257
     40    H       29.3310   -0.6060    5.3590 H       2  LIG2        0.0257
     41    H       28.7990   -1.0380    3.7540 H       2  LIG2        0.0257
     42    H       30.6330    0.9260    4.1180 H       2  LIG2        0.2102
@<TRIPOS>BOND
     1    35    14    1
     2    34    14    1
     3    24    10    1
     4    14    10    1
     5    14     8    1
     6    37    15    1
     7    10    25    1
     8    10     6    1
     9    23     8    1
    10     8    15    1
    11     8     5    1
    12    29    12    1
    13    15    36    1
    14    15    38    1
    15    30    12    1
    16    20     6    1
    17     6     5    1
    18     6     9    1
    19    12    28    1
    20    12     3    1
    21     1    42    1
    22     1     9    1
    23     5    19    1
    24     5     2    1
    25    41    16    1
    26     9    16    1
    27     9    11    1
    28    33    13    1
    29    21     7    1
    30     3     2    1
    31     3    13    1
    32     3     4    1
    33    16    39    1
    34    16    40    1
    35     2    17    1
    36     2     4    1
    37    13    31    1
    38    13    32    1
    39     7     4    1
    40     7    11    1
    41     7    22    1
    42     4    18    1
    43    11    26    1
    44    11    27    1
@<TRIPOS>MOLECULE
11996452_2_run_11.pdb
 42 44 0 0 0
SMALL
GASTEIGER

@<TRIPOS>ATOM
      1    O       30.5990    0.8930    2.2610 O.3     2  LIG2       -0.3886
      2    C       28.3120    1.5120    6.1920 C.3     2  LIG2       -0.0289
      3    C       29.3440    2.1630    7.0970 C.3     2  LIG2       -0.0284
      4    C       29.6200    0.7750    6.5510 C.3     2  LIG2       -0.0319
      5    C       27.9340    1.9610    4.7430 C.3     2  LIG2       -0.0294
      6    C       28.9740    1.9800    3.5960 C.3     2  LIG2       -0.0090
      7    C       30.6840    0.4660    5.4750 C.3     2  LIG2       -0.0468
      8    C       27.2540    3.3480    4.7000 C.3     2  LIG2       -0.0404
      9    C       29.5080    0.5850    3.1150 C.3     2  LIG2        0.0664
     10    C       28.2890    2.8450    2.5200 C.3     2  LIG2       -0.0471
     11    C       30.1000   -0.2840    4.2620 C.3     2  LIG2       -0.0237
     12    C       30.1950    3.3820    6.6770 C.3     2  LIG2       -0.0593
     13    C       28.9650    2.2510    8.5890 C.3     2  LIG2       -0.0593
     14    C       27.4680    3.8940    3.2760 C.3     2  LIG2       -0.0498
     15    C       25.7790    3.3340    5.1440 C.3     2  LIG2       -0.0621
     16    C       28.5080   -0.2610    2.2920 C.3     2  LIG2       -0.0358
     17    H       27.4110    1.1600    6.6960 H       2  LIG2        0.0312
     18    H       29.5700   -0.0330    7.2830 H       2  LIG2        0.0309
     19    H       27.1840    1.2390    4.4160 H       2  LIG2        0.0310
     20    H       29.8310    2.5670    3.9110 H       2  LIG2        0.0331
     21    H       31.2520    1.3410    5.1640 H       2  LIG2        0.0269
     22    H       31.4230   -0.1880    5.9380 H       2  LIG2        0.0269
     23    H       27.7860    4.0190    5.3770 H       2  LIG2        0.0301
     24    H       29.0140    3.3160    1.8540 H       2  LIG2        0.0269
     25    H       27.6170    2.2570    1.8960 H       2  LIG2        0.0269
     26    H       30.8600   -0.9600    3.8620 H       2  LIG2        0.0293
     27    H       29.3260   -0.9560    4.6380 H       2  LIG2        0.0293
     28    H       31.1010    3.4370    7.2810 H       2  LIG2        0.0235
     29    H       29.6460    4.3100    6.8360 H       2  LIG2        0.0235
     30    H       30.5210    3.3840    5.6460 H       2  LIG2        0.0235
     31    H       29.8540    2.2940    9.2190 H       2  LIG2        0.0235
     32    H       28.3780    1.3920    8.9180 H       2  LIG2        0.0235
     33    H       28.3700    3.1430    8.7880 H       2  LIG2        0.0235
     34    H       26.5290    4.0990    2.7590 H       2  LIG2        0.0268
     35    H       28.0150    4.8370    3.3160 H       2  LIG2        0.0268
     36    H       25.1760    2.6940    4.4990 H       2  LIG2        0.0233
     37    H       25.3510    4.3360    5.1120 H       2  LIG2        0.0233
     38    H       25.6780    2.9670    6.1660 H       2  LIG2        0.0233
     39    H       27.5930   -0.4580    2.8520 H       2  LIG2        0.0257
     40    H       28.9350   -1.2290    2.0230 H       2  LIG2        0.0257
     41    H       28.2250    0.2180    1.3550 H       2  LIG2        0.0257
     42    H       31.4040    0.8930    2.7850 H       2  LIG2        0.2102
@<TRIPOS>BOND
     1    41    16    1
     2    24    10    1
     3    25    10    1
     4    40    16    1
     5     1    42    1
     6     1     9    1
     7    16    39    1
     8    16     9    1
     9    10    14    1
    10    10     6    1
    11    34    14    1
    12     9     6    1
    13     9    11    1
    14    14    35    1
    15    14     8    1
    16     6    20    1
    17     6     5    1
    18    26    11    1
    19    11    27    1
    20    11     7    1
    21    19     5    1
    22    36    15    1
    23     8     5    1
    24     8    15    1
    25     8    23    1
    26     5     2    1
    27    37    15    1
    28    15    38    1
    29    21     7    1
    30     7    22    1
    31     7     4    1
    32    30    12    1
    33     2     4    1
    34     2    17    1
    35     2     3    1
    36     4     3    1
    37     4    18    1
    38    12    29    1
    39    12     3    1
    40    12    28    1
    41     3    13    1
    42    13    33    1
    43    13    32    1
    44    13    31    1
