@<TRIPOS>MOLECULE
11996452_3_run_10.pdb
 42 44 0 0 0
SMALL
GASTEIGER

@<TRIPOS>ATOM
      1    O       28.6920   -1.3490    3.6040 O.3     2  LIG2       -0.3886
      2    C       26.9170    2.6640    4.8770 C.3     2  LIG2       -0.0289
      3    C       26.6040    3.8950    4.0430 C.3     2  LIG2       -0.0284
      4    C       26.2990    2.5230    3.4800 C.3     2  LIG2       -0.0319
      5    C       28.3560    2.1420    5.1260 C.3     2  LIG2       -0.0294
      6    C       28.4800    0.6040    4.9840 C.3     2  LIG2       -0.0090
      7    C       27.1070    1.8600    2.3450 C.3     2  LIG2       -0.0468
      8    C       28.8760    2.4970    6.5450 C.3     2  LIG2       -0.0404
      9    C       28.6470    0.0660    3.5200 C.3     2  LIG2        0.0664
     10    C       29.6180    0.2350    5.9560 C.3     2  LIG2       -0.0471
     11    C       27.4280    0.3710    2.6020 C.3     2  LIG2       -0.0237
     12    C       25.4010    4.7420    4.4960 C.3     2  LIG2       -0.0593
     13    C       27.7280    4.7760    3.4490 C.3     2  LIG2       -0.0593
     14    C       29.4990    1.2140    7.1210 C.3     2  LIG2       -0.0498
     15    C       29.8210    3.7110    6.5720 C.3     2  LIG2       -0.0621
     16    C       29.9650    0.4770    2.8140 C.3     2  LIG2       -0.0358
     17    H       26.2540    2.4290    5.7110 H       2  LIG2        0.0312
     18    H       25.2400    2.2730    3.4010 H       2  LIG2        0.0309
     19    H       29.0480    2.5780    4.4110 H       2  LIG2        0.0310
     20    H       27.5690    0.1590    5.3950 H       2  LIG2        0.0331
     21    H       26.4980    1.9170    1.4420 H       2  LIG2        0.0269
     22    H       28.0170    2.4030    2.1050 H       2  LIG2        0.0269
     23    H       28.0280    2.7410    7.1870 H       2  LIG2        0.0301
     24    H       29.5440   -0.7970    6.2980 H       2  LIG2        0.0269
     25    H       30.5980    0.3500    5.4920 H       2  LIG2        0.0269
     26    H       26.5320   -0.0970    3.0140 H       2  LIG2        0.0293
     27    H       27.5840   -0.1070    1.6320 H       2  LIG2        0.0293
     28    H       24.9760    5.2960    3.6590 H       2  LIG2        0.0235
     29    H       25.6950    5.4620    5.2610 H       2  LIG2        0.0235
     30    H       24.6030    4.1310    4.9180 H       2  LIG2        0.0235
     31    H       27.3620    5.3300    2.5840 H       2  LIG2        0.0235
     32    H       28.6060    4.2270    3.1190 H       2  LIG2        0.0235
     33    H       28.0720    5.5060    4.1830 H       2  LIG2        0.0235
     34    H       30.4700    1.3880    7.5880 H       2  LIG2        0.0268
     35    H       28.8490    0.7970    7.8920 H       2  LIG2        0.0268
     36    H       30.7130    3.5350    5.9700 H       2  LIG2        0.0233
     37    H       30.1470    3.9340    7.5890 H       2  LIG2        0.0233
     38    H       29.3270    4.6020    6.1830 H       2  LIG2        0.0233
     39    H       30.0800    1.5570    2.7390 H       2  LIG2        0.0257
     40    H       30.0100    0.0860    1.7960 H       2  LIG2        0.0257
     41    H       30.8490    0.0960    3.3250 H       2  LIG2        0.0257
     42    H       29.3900   -1.5940    4.2170 H       2  LIG2        0.2102
@<TRIPOS>BOND
     1    21     7    1
     2    27    11    1
     3    40    16    1
     4    22     7    1
     5     7    11    1
     6     7     4    1
     7    31    13    1
     8    11    26    1
     9    11     9    1
    10    39    16    1
    11    16    41    1
    12    16     9    1
    13    32    13    1
    14    18     4    1
    15    13     3    1
    16    13    33    1
    17     4     3    1
    18     4     2    1
    19     9     1    1
    20     9     6    1
    21     1    42    1
    22    28    12    1
    23     3    12    1
    24     3     2    1
    25    19     5    1
    26    12    30    1
    27    12    29    1
    28     2     5    1
    29     2    17    1
    30     6     5    1
    31     6    20    1
    32     6    10    1
    33     5     8    1
    34    25    10    1
    35    10    24    1
    36    10    14    1
    37    36    15    1
    38    38    15    1
    39     8    15    1
    40     8    14    1
    41     8    23    1
    42    15    37    1
    43    14    34    1
    44    14    35    1
@<TRIPOS>MOLECULE
11996452_3_run_15.pdb
 42 44 0 0 0
SMALL
GASTEIGER

@<TRIPOS>ATOM
      1    O       23.6680    4.4380    3.3080 O.3     2  LIG2       -0.3886
      2    C       27.4010    1.8430    2.8520 C.3     2  LIG2       -0.0289
      3    C       27.6280    0.3920    3.2400 C.3     2  LIG2       -0.0284
      4    C       26.3090    0.7930    2.6150 C.3     2  LIG2       -0.0319
      5    C       27.1540    2.9760    3.8810 C.3     2  LIG2       -0.0294
      6    C       26.0110    3.9370    3.4690 C.3     2  LIG2       -0.0090
      7    C       24.9780    0.8780    3.3920 C.3     2  LIG2       -0.0468
      8    C       28.4120    3.8580    4.1030 C.3     2  LIG2       -0.0404
      9    C       24.5570    3.4510    3.8060 C.3     2  LIG2        0.0664
     10    C       26.4170    5.2850    4.0960 C.3     2  LIG2       -0.0471
     11    C       24.1520    2.1420    3.0690 C.3     2  LIG2       -0.0237
     12    C       28.5990   -0.4110    2.3550 C.3     2  LIG2       -0.0593
     13    C       27.7160   -0.0440    4.7210 C.3     2  LIG2       -0.0593
     14    C       27.9420    5.3210    4.0400 C.3     2  LIG2       -0.0498
     15    C       29.1930    3.5120    5.3830 C.3     2  LIG2       -0.0621
     16    C       24.2360    3.3360    5.3190 C.3     2  LIG2       -0.0358
     17    H       27.8970    2.2160    1.9550 H       2  LIG2        0.0312
     18    H       26.1420    0.4330    1.5980 H       2  LIG2        0.0309
     19    H       26.8780    2.5600    4.8460 H       2  LIG2        0.0310
     20    H       26.0670    4.0730    2.3850 H       2  LIG2        0.0331
     21    H       24.3830    0.0100    3.1070 H       2  LIG2        0.0269
     22    H       25.1130    0.7840    4.4670 H       2  LIG2        0.0269
     23    H       29.0990    3.7200    3.2660 H       2  LIG2        0.0301
     24    H       25.9820    6.1300    3.5630 H       2  LIG2        0.0269
     25    H       26.0960    5.3600    5.1340 H       2  LIG2        0.0269
     26    H       24.1930    2.3000    1.9890 H       2  LIG2        0.0293
     27    H       23.1050    1.9190    3.2880 H       2  LIG2        0.0293
     28    H       28.3750   -1.4770    2.3970 H       2  LIG2        0.0235
     29    H       29.6310   -0.2710    2.6800 H       2  LIG2        0.0235
     30    H       28.5460   -0.1110    1.3090 H       2  LIG2        0.0235
     31    H       27.4680   -1.1020    4.8230 H       2  LIG2        0.0235
     32    H       27.0540    0.4970    5.3920 H       2  LIG2        0.0235
     33    H       28.7280    0.0920    5.1020 H       2  LIG2        0.0235
     34    H       28.3490    5.9310    4.8490 H       2  LIG2        0.0268
     35    H       28.2690    5.7790    3.1050 H       2  LIG2        0.0268
     36    H       28.5790    3.6500    6.2740 H       2  LIG2        0.0233
     37    H       30.0760    4.1430    5.4880 H       2  LIG2        0.0233
     38    H       29.5310    2.4750    5.3690 H       2  LIG2        0.0233
     39    H       24.8990    2.6430    5.8350 H       2  LIG2        0.0257
     40    H       23.2190    2.9780    5.4830 H       2  LIG2        0.0257
     41    H       24.3080    4.2930    5.8350 H       2  LIG2        0.0257
     42    H       22.7700    4.1700    3.5160 H       2  LIG2        0.2102
@<TRIPOS>BOND
     1    30    12    1
     2    18     4    1
     3    17     2    1
     4    26    11    1
     5    12    28    1
     6    12    29    1
     7    12     3    1
     8    20     6    1
     9     4     2    1
    10     4     3    1
    11     4     7    1
    12     2     3    1
    13     2     5    1
    14    11    27    1
    15    11     7    1
    16    11     9    1
    17    35    14    1
    18    21     7    1
    19     3    13    1
    20    23     8    1
    21     1    42    1
    22     1     9    1
    23     7    22    1
    24     6     9    1
    25     6     5    1
    26     6    10    1
    27    24    10    1
    28     9    16    1
    29     5     8    1
    30     5    19    1
    31    14    10    1
    32    14     8    1
    33    14    34    1
    34    10    25    1
    35     8    15    1
    36    13    31    1
    37    13    33    1
    38    13    32    1
    39    16    40    1
    40    16    39    1
    41    16    41    1
    42    38    15    1
    43    15    37    1
    44    15    36    1
@<TRIPOS>MOLECULE
11996452_3_run_23.pdb
 42 44 0 0 0
SMALL
GASTEIGER

@<TRIPOS>ATOM
      1    O       30.3740    3.3930    4.8550 O.3     2  LIG2       -0.3886
      2    C       26.9860    1.3420    2.5760 C.3     2  LIG2       -0.0289
      3    C       25.4860    1.5660    2.6590 C.3     2  LIG2       -0.0284
      4    C       26.4150    2.7610    2.6940 C.3     2  LIG2       -0.0319
      5    C       27.8310    0.7650    3.7410 C.3     2  LIG2       -0.0294
      6    C       29.1650    1.5210    3.9610 C.3     2  LIG2       -0.0090
      7    C       26.6930    3.5980    3.9610 C.3     2  LIG2       -0.0468
      8    C       28.2020   -0.7260    3.5190 C.3     2  LIG2       -0.0404
      9    C       29.0710    2.8340    4.8150 C.3     2  LIG2        0.0664
     10    C       30.1140    0.4410    4.5160 C.3     2  LIG2       -0.0471
     11    C       28.1850    3.9370    4.1650 C.3     2  LIG2       -0.0237
     12    C       24.6870    1.3480    1.3600 C.3     2  LIG2       -0.0593
     13    C       24.6730    1.1430    3.9040 C.3     2  LIG2       -0.0593
     14    C       29.7020   -0.8600    3.8330 C.3     2  LIG2       -0.0498
     15    C       27.3140   -1.7080    4.3050 C.3     2  LIG2       -0.0621
     16    C       28.6670    2.6280    6.2980 C.3     2  LIG2       -0.0358
     17    H       27.4130    1.0870    1.6050 H       2  LIG2        0.0312
     18    H       26.4020    3.3940    1.8050 H       2  LIG2        0.0309
     19    H       27.2810    0.8240    4.6750 H       2  LIG2        0.0310
     20    H       29.5560    1.7980    2.9780 H       2  LIG2        0.0331
     21    H       26.1510    4.5380    3.8500 H       2  LIG2        0.0269
     22    H       26.2850    3.1450    4.8610 H       2  LIG2        0.0269
     23    H       28.0860   -0.9710    2.4620 H       2  LIG2        0.0301
     24    H       31.1600    0.6770    4.3180 H       2  LIG2        0.0269
     25    H       30.0090    0.3270    5.5950 H       2  LIG2        0.0269
     26    H       28.5990    4.2170    3.1940 H       2  LIG2        0.0293
     27    H       28.2400    4.8430    4.7740 H       2  LIG2        0.0293
     28    H       23.7660    1.9320    1.3650 H       2  LIG2        0.0235
     29    H       24.4190    0.2980    1.2380 H       2  LIG2        0.0235
     30    H       25.2520    1.6430    0.4760 H       2  LIG2        0.0235
     31    H       23.7510    1.7230    3.9740 H       2  LIG2        0.0235
     32    H       25.1940    1.2710    4.8490 H       2  LIG2        0.0235
     33    H       24.3930    0.0910    3.8400 H       2  LIG2        0.0235
     34    H       29.9270   -1.7220    4.4630 H       2  LIG2        0.0268
     35    H       30.2660   -0.9900    2.9090 H       2  LIG2        0.0268
     36    H       27.3940   -1.5440    5.3800 H       2  LIG2        0.0233
     37    H       27.5990   -2.7420    4.1050 H       2  LIG2        0.0233
     38    H       26.2660   -1.5970    4.0280 H       2  LIG2        0.0233
     39    H       27.6970    2.1450    6.4030 H       2  LIG2        0.0257
     40    H       28.6040    3.5790    6.8290 H       2  LIG2        0.0257
     41    H       29.3880    2.0220    6.8470 H       2  LIG2        0.0257
     42    H       30.6250    3.6430    3.9630 H       2  LIG2        0.2102
@<TRIPOS>BOND
     1    30    12    1
     2    29    12    1
     3    12    28    1
     4    12     3    1
     5    17     2    1
     6    18     4    1
     7    23     8    1
     8     2     3    1
     9     2     4    1
    10     2     5    1
    11     3     4    1
    12     3    13    1
    13     4     7    1
    14    35    14    1
    15    20     6    1
    16    26    11    1
    17     8     5    1
    18     8    14    1
    19     8    15    1
    20     5     6    1
    21     5    19    1
    22    14    34    1
    23    14    10    1
    24    33    13    1
    25    21     7    1
    26    13    31    1
    27    13    32    1
    28     7    11    1
    29     7    22    1
    30     6    10    1
    31     6     9    1
    32    42     1    1
    33    38    15    1
    34    37    15    1
    35    11    27    1
    36    11     9    1
    37    15    36    1
    38    24    10    1
    39    10    25    1
    40     9     1    1
    41     9    16    1
    42    16    39    1
    43    16    40    1
    44    16    41    1
@<TRIPOS>MOLECULE
11996452_3_run_8.pdb
 42 44 0 0 0
SMALL
GASTEIGER

@<TRIPOS>ATOM
      1    O       26.3450    6.0030    4.6050 O.3     2  LIG2       -0.3886
      2    C       27.0320    1.4880    4.4710 C.3     2  LIG2       -0.0289
      3    C       28.2090    0.7010    3.9190 C.3     2  LIG2       -0.0284
      4    C       28.4690    1.9760    4.6940 C.3     2  LIG2       -0.0319
      5    C       26.0740    2.3280    3.5870 C.3     2  LIG2       -0.0294
      6    C       25.7440    3.7150    4.1920 C.3     2  LIG2       -0.0090
      7    C       28.9430    3.2950    4.0470 C.3     2  LIG2       -0.0468
      8    C       24.7150    1.6170    3.3480 C.3     2  LIG2       -0.0404
      9    C       26.8060    4.8410    3.9350 C.3     2  LIG2        0.0664
     10    C       24.3250    4.0160    3.6720 C.3     2  LIG2       -0.0471
     11    C       28.1960    4.5420    4.5670 C.3     2  LIG2       -0.0237
     12    C       28.5430   -0.6230    4.6310 C.3     2  LIG2       -0.0593
     13    C       28.4820    0.6140    2.4000 C.3     2  LIG2       -0.0593
     14    C       23.6180    2.6660    3.6000 C.3     2  LIG2       -0.0498
     15    C       24.6100    0.9260    1.9770 C.3     2  LIG2       -0.0621
     16    C       26.9720    5.2630    2.4510 C.3     2  LIG2       -0.0358
     17    H       26.5260    1.0980    5.3550 H       2  LIG2        0.0312
     18    H       28.9180    1.8430    5.6800 H       2  LIG2        0.0309
     19    H       26.5180    2.5100    2.6130 H       2  LIG2        0.0310
     20    H       25.6550    3.5920    5.2750 H       2  LIG2        0.0331
     21    H       29.9990    3.4120    4.2930 H       2  LIG2        0.0269
     22    H       28.9100    3.2650    2.9610 H       2  LIG2        0.0269
     23    H       24.5780    0.8420    4.1050 H       2  LIG2        0.0301
     24    H       23.7900    4.7070    4.3240 H       2  LIG2        0.0269
     25    H       24.3460    4.4630    2.6780 H       2  LIG2        0.0269
     26    H       28.0940    4.4420    5.6500 H       2  LIG2        0.0293
     27    H       28.8490    5.4060    4.4180 H       2  LIG2        0.0293
     28    H       29.5940   -0.8830    4.5010 H       2  LIG2        0.0235
     29    H       27.9430   -1.4430    4.2350 H       2  LIG2        0.0235
     30    H       28.3530   -0.5730    5.7040 H       2  LIG2        0.0235
     31    H       29.5330    0.3870    2.2130 H       2  LIG2        0.0235
     32    H       28.2560    1.5220    1.8470 H       2  LIG2        0.0235
     33    H       27.8900   -0.1830    1.9490 H       2  LIG2        0.0235
     34    H       22.8490    2.6670    2.8250 H       2  LIG2        0.0268
     35    H       23.1130    2.4590    4.5440 H       2  LIG2        0.0268
     36    H       24.7120    1.6430    1.1610 H       2  LIG2        0.0233
     37    H       23.6480    0.4260    1.8600 H       2  LIG2        0.0233
     38    H       25.3890    0.1720    1.8570 H       2  LIG2        0.0233
     39    H       27.2700    4.4330    1.8120 H       2  LIG2        0.0257
     40    H       27.7360    6.0340    2.3400 H       2  LIG2        0.0257
     41    H       26.0570    5.6780    2.0300 H       2  LIG2        0.0257
     42    H       26.3690    5.8370    5.5510 H       2  LIG2        0.2102
@<TRIPOS>BOND
     1    36    15    1
     2    39    16    1
     3    32    13    1
     4    38    15    1
     5    37    15    1
     6    33    13    1
     7    15     8    1
     8    41    16    1
     9    31    13    1
    10    40    16    1
    11    13     3    1
    12    16     9    1
    13    19     5    1
    14    25    10    1
    15    34    14    1
    16    22     7    1
    17     8     5    1
    18     8    14    1
    19     8    23    1
    20     5     6    1
    21     5     2    1
    22    14    10    1
    23    14    35    1
    24    10     6    1
    25    10    24    1
    26     3     2    1
    27     3    12    1
    28     3     4    1
    29     9     6    1
    30     9    11    1
    31     9     1    1
    32     7    21    1
    33     7    11    1
    34     7     4    1
    35     6    20    1
    36    29    12    1
    37    27    11    1
    38     2     4    1
    39     2    17    1
    40    28    12    1
    41    11    26    1
    42     1    42    1
    43    12    30    1
    44     4    18    1
@<TRIPOS>MOLECULE
11996452_3_run_16.pdb
 42 44 0 0 0
SMALL
GASTEIGER

@<TRIPOS>ATOM
      1    O       31.1240    0.8580    5.3720 O.3     2  LIG2       -0.3886
      2    C       27.7880    3.2690    3.3890 C.3     2  LIG2       -0.0289
      3    C       26.8830    4.3400    3.9760 C.3     2  LIG2       -0.0284
      4    C       28.3500    4.3230    4.3530 C.3     2  LIG2       -0.0319
      5    C       27.7510    1.7830    3.8270 C.3     2  LIG2       -0.0294
      6    C       29.1600    1.1700    4.0260 C.3     2  LIG2       -0.0090
      7    C       28.8770    3.8930    5.7380 C.3     2  LIG2       -0.0468
      8    C       27.0200    0.8810    2.7970 C.3     2  LIG2       -0.0404
      9    C       29.8390    1.4560    5.4120 C.3     2  LIG2        0.0664
     10    C       28.9660   -0.3200    3.6830 C.3     2  LIG2       -0.0471
     11    C       30.1110    2.9660    5.6710 C.3     2  LIG2       -0.0237
     12    C       26.4270    5.4540    3.0160 C.3     2  LIG2       -0.0593
     13    C       25.7840    3.9920    5.0070 C.3     2  LIG2       -0.0593
     14    C       27.9110   -0.3550    2.5810 C.3     2  LIG2       -0.0498
     15    C       25.5720    0.5400    3.1900 C.3     2  LIG2       -0.0621
     16    C       29.1290    0.8220    6.6360 C.3     2  LIG2       -0.0358
     17    H       28.0950    3.3740    2.3470 H       2  LIG2        0.0312
     18    H       28.9500    5.1370    3.9430 H       2  LIG2        0.0309
     19    H       27.2300    1.6780    4.7740 H       2  LIG2        0.0310
     20    H       29.8130    1.5810    3.2510 H       2  LIG2        0.0331
     21    H       29.1720    4.8010    6.2650 H       2  LIG2        0.0269
     22    H       28.1070    3.4460    6.3610 H       2  LIG2        0.0269
     23    H       26.9740    1.3980    1.8360 H       2  LIG2        0.0301
     24    H       29.8950   -0.7880    3.3550 H       2  LIG2        0.0269
     25    H       28.6060   -0.8880    4.5400 H       2  LIG2        0.0269
     26    H       30.7790    3.3570    4.9010 H       2  LIG2        0.0293
     27    H       30.6580    3.0740    6.6100 H       2  LIG2        0.0293
     28    H       26.1890    6.3670    3.5620 H       2  LIG2        0.0235
     29    H       25.5370    5.1530    2.4620 H       2  LIG2        0.0235
     30    H       27.1940    5.7060    2.2840 H       2  LIG2        0.0235
     31    H       25.5310    4.8690    5.6050 H       2  LIG2        0.0235
     32    H       26.0530    3.2050    5.7060 H       2  LIG2        0.0235
     33    H       24.8740    3.6670    4.5020 H       2  LIG2        0.0235
     34    H       27.3490   -1.2910    2.6050 H       2  LIG2        0.0268
     35    H       28.3920   -0.3020    1.6030 H       2  LIG2        0.0268
     36    H       25.5330   -0.0050    4.1340 H       2  LIG2        0.0233
     37    H       25.0930   -0.0800    2.4300 H       2  LIG2        0.0233
     38    H       24.9720    1.4440    3.3020 H       2  LIG2        0.0233
     39    H       28.0990    1.1600    6.7430 H       2  LIG2        0.0257
     40    H       29.6400    1.0730    7.5660 H       2  LIG2        0.0257
     41    H       29.1050   -0.2660    6.5870 H       2  LIG2        0.0257
     42    H       31.5520    1.1130    4.5510 H       2  LIG2        0.2102
@<TRIPOS>BOND
     1    35    14    1
     2    23     8    1
     3    30    12    1
     4    17     2    1
     5    37    15    1
     6    29    12    1
     7    14    34    1
     8    14     8    1
     9    14    10    1
    10     8    15    1
    11     8     5    1
    12    12    28    1
    13    12     3    1
    14    15    38    1
    15    15    36    1
    16    20     6    1
    17    24    10    1
    18     2     5    1
    19     2     3    1
    20     2     4    1
    21    10     6    1
    22    10    25    1
    23     5     6    1
    24     5    19    1
    25    18     4    1
    26     3     4    1
    27     3    13    1
    28     6     9    1
    29     4     7    1
    30    33    13    1
    31    42     1    1
    32    26    11    1
    33    13    31    1
    34    13    32    1
    35     1     9    1
    36     9    11    1
    37     9    16    1
    38    11     7    1
    39    11    27    1
    40     7    21    1
    41     7    22    1
    42    41    16    1
    43    16    39    1
    44    16    40    1
@<TRIPOS>MOLECULE
11996452_3_run_3.pdb
 42 44 0 0 0
SMALL
GASTEIGER

@<TRIPOS>ATOM
      1    O       30.2150    0.5470    5.8510 O.3     2  LIG2       -0.3886
      2    C       26.1870    1.7670    4.0720 C.3     2  LIG2       -0.0289
      3    C       25.4020    1.1450    2.9290 C.3     2  LIG2       -0.0284
      4    C       26.0990    0.2420    3.9250 C.3     2  LIG2       -0.0319
      5    C       27.5570    2.4690    3.8870 C.3     2  LIG2       -0.0294
      6    C       28.5930    2.0830    4.9730 C.3     2  LIG2       -0.0090
      7    C       27.3700   -0.5740    3.6050 C.3     2  LIG2       -0.0468
      8    C       27.4380    4.0160    3.9230 C.3     2  LIG2       -0.0404
      9    C       29.3640    0.7380    4.7330 C.3     2  LIG2        0.0664
     10    C       29.4790    3.3380    5.1000 C.3     2  LIG2       -0.0471
     11    C       28.4400   -0.5140    4.7160 C.3     2  LIG2       -0.0237
     12    C       23.8680    1.2300    3.0260 C.3     2  LIG2       -0.0593
     13    C       25.8870    1.2510    1.4650 C.3     2  LIG2       -0.0593
     14    C       28.5510    4.5240    4.8550 C.3     2  LIG2       -0.0498
     15    C       27.4490    4.6710    2.5300 C.3     2  LIG2       -0.0621
     16    C       30.3010    0.7290    3.4970 C.3     2  LIG2       -0.0358
     17    H       25.6270    2.1920    4.9060 H       2  LIG2        0.0312
     18    H       25.4420   -0.3100    4.5990 H       2  LIG2        0.0309
     19    H       27.9960    2.2020    2.9300 H       2  LIG2        0.0310
     20    H       28.0570    1.9880    5.9220 H       2  LIG2        0.0331
     21    H       27.0630   -1.6150    3.4940 H       2  LIG2        0.0269
     22    H       27.8090   -0.3080    2.6470 H       2  LIG2        0.0269
     23    H       26.4930    4.2930    4.3940 H       2  LIG2        0.0301
     24    H       29.9550    3.4040    6.0790 H       2  LIG2        0.0269
     25    H       30.2740    3.3460    4.3550 H       2  LIG2        0.0269
     26    H       27.9290   -0.6070    5.6770 H       2  LIG2        0.0293
     27    H       29.0580   -1.4110    4.6300 H       2  LIG2        0.0293
     28    H       23.3960    0.4220    2.4650 H       2  LIG2        0.0235
     29    H       23.5020    2.1760    2.6250 H       2  LIG2        0.0235
     30    H       23.5160    1.1570    4.0550 H       2  LIG2        0.0235
     31    H       25.4670    0.4430    0.8640 H       2  LIG2        0.0235
     32    H       26.9660    1.2040    1.3400 H       2  LIG2        0.0235
     33    H       25.5610    2.1920    1.0200 H       2  LIG2        0.0235
     34    H       29.0990    5.3710    4.4370 H       2  LIG2        0.0268
     35    H       28.1220    4.8620    5.7990 H       2  LIG2        0.0268
     36    H       28.3790    4.4620    1.9990 H       2  LIG2        0.0233
     37    H       27.3450    5.7540    2.6020 H       2  LIG2        0.0233
     38    H       26.6260    4.3020    1.9160 H       2  LIG2        0.0233
     39    H       29.7690    0.9270    2.5680 H       2  LIG2        0.0257
     40    H       30.7920   -0.2380    3.3780 H       2  LIG2        0.0257
     41    H       31.0990    1.4670    3.5730 H       2  LIG2        0.0257
     42    H       30.7560   -0.2310    5.6910 H       2  LIG2        0.2102
@<TRIPOS>BOND
     1    31    13    1
     2    33    13    1
     3    32    13    1
     4    13     3    1
     5    38    15    1
     6    36    15    1
     7    28    12    1
     8    15    37    1
     9    15     8    1
    10    39    16    1
    11    29    12    1
    12    22     7    1
    13     3    12    1
    14     3     4    1
    15     3     2    1
    16    19     5    1
    17    12    30    1
    18    40    16    1
    19    21     7    1
    20    16    41    1
    21    16     9    1
    22     7     4    1
    23     7    11    1
    24     5     8    1
    25     5     2    1
    26     5     6    1
    27     8    23    1
    28     8    14    1
    29     4     2    1
    30     4    18    1
    31     2    17    1
    32    25    10    1
    33    34    14    1
    34    27    11    1
    35    11     9    1
    36    11    26    1
    37     9     6    1
    38     9     1    1
    39    14    10    1
    40    14    35    1
    41     6    10    1
    42     6    20    1
    43    10    24    1
    44    42     1    1
@<TRIPOS>MOLECULE
11996452_3_run_5.pdb
 42 44 0 0 0
SMALL
GASTEIGER

@<TRIPOS>ATOM
      1    O       26.5850    4.8820    2.7880 O.3     2  LIG2       -0.3886
      2    C       28.5980    0.8370    3.4670 C.3     2  LIG2       -0.0289
      3    C       27.9880   -0.5540    3.5250 C.3     2  LIG2       -0.0284
      4    C       27.4920    0.4290    2.4850 C.3     2  LIG2       -0.0319
      5    C       28.3120    1.9410    4.5170 C.3     2  LIG2       -0.0294
      6    C       28.0550    3.3320    3.8850 C.3     2  LIG2       -0.0090
      7    C       26.1160    1.1250    2.5450 C.3     2  LIG2       -0.0468
      8    C       29.4830    2.1220    5.5190 C.3     2  LIG2       -0.0404
      9    C       26.5960    3.5870    3.3670 C.3     2  LIG2        0.0664
     10    C       28.5570    4.3220    4.9550 C.3     2  LIG2       -0.0471
     11    C       26.1690    2.6320    2.2150 C.3     2  LIG2       -0.0237
     12    C       28.8700   -1.7110    3.0190 C.3     2  LIG2       -0.0593
     13    C       27.0920   -0.9950    4.7050 C.3     2  LIG2       -0.0593
     14    C       29.7420    3.6340    5.6270 C.3     2  LIG2       -0.0498
     15    C       29.2490    1.4350    6.8760 C.3     2  LIG2       -0.0621
     16    C       25.5030    3.6210    4.4680 C.3     2  LIG2       -0.0358
     17    H       29.5950    0.9410    3.0360 H       2  LIG2        0.0312
     18    H       27.7680    0.2020    1.4540 H       2  LIG2        0.0309
     19    H       27.4270    1.6950    5.0970 H       2  LIG2        0.0310
     20    H       28.7290    3.4370    3.0290 H       2  LIG2        0.0331
     21    H       25.4800    0.6430    1.8010 H       2  LIG2        0.0269
     22    H       25.6070    0.9670    3.4930 H       2  LIG2        0.0269
     23    H       30.3890    1.6850    5.0950 H       2  LIG2        0.0301
     24    H       28.8490    5.2780    4.5210 H       2  LIG2        0.0269
     25    H       27.7920    4.5290    5.7030 H       2  LIG2        0.0269
     26    H       26.8370    2.7630    1.3620 H       2  LIG2        0.0293
     27    H       25.1800    2.9280    1.8550 H       2  LIG2        0.0293
     28    H       28.2590   -2.5450    2.6740 H       2  LIG2        0.0235
     29    H       29.5240   -2.0780    3.8110 H       2  LIG2        0.0235
     30    H       29.5070   -1.4100    2.1870 H       2  LIG2        0.0235
     31    H       26.4350   -1.8110    4.4010 H       2  LIG2        0.0235
     32    H       26.4530   -0.2120    5.1050 H       2  LIG2        0.0235
     33    H       27.7010   -1.3570    5.5340 H       2  LIG2        0.0235
     34    H       29.8570    3.9710    6.6590 H       2  LIG2        0.0268
     35    H       30.6660    3.8930    5.1070 H       2  LIG2        0.0268
     36    H       28.3690    1.8370    7.3800 H       2  LIG2        0.0233
     37    H       30.1030    1.5730    7.5400 H       2  LIG2        0.0233
     38    H       29.1000    0.3620    6.7520 H       2  LIG2        0.0233
     39    H       25.4510    2.6920    5.0330 H       2  LIG2        0.0257
     40    H       24.5130    3.7850    4.0400 H       2  LIG2        0.0257
     41    H       25.6600    4.4250    5.1860 H       2  LIG2        0.0257
     42    H       27.2740    4.9210    2.1200 H       2  LIG2        0.2102
@<TRIPOS>BOND
     1    26    11    1
     2    18     4    1
     3    21     7    1
     4    27    11    1
     5    42     1    1
     6    30    12    1
     7    11     7    1
     8    11     9    1
     9     4     7    1
    10     4     2    1
    11     4     3    1
    12     7    22    1
    13    28    12    1
    14     1     9    1
    15    12     3    1
    16    12    29    1
    17    20     6    1
    18    17     2    1
    19     9     6    1
    20     9    16    1
    21     2     3    1
    22     2     5    1
    23     3    13    1
    24     6     5    1
    25     6    10    1
    26    40    16    1
    27    31    13    1
    28    16    39    1
    29    16    41    1
    30     5    19    1
    31     5     8    1
    32    24    10    1
    33    13    32    1
    34    13    33    1
    35    10    14    1
    36    10    25    1
    37    23     8    1
    38    35    14    1
    39     8    14    1
    40     8    15    1
    41    14    34    1
    42    38    15    1
    43    15    36    1
    44    15    37    1
@<TRIPOS>MOLECULE
11996452_3_run_20.pdb
 42 44 0 0 0
SMALL
GASTEIGER

@<TRIPOS>ATOM
      1    O       28.7280   -0.7740    1.8950 O.3     2  LIG2       -0.3886
      2    C       29.1940    2.5730    4.9700 C.3     2  LIG2       -0.0289
      3    C       29.5960    2.4980    6.4340 C.3     2  LIG2       -0.0284
      4    C       30.3150    1.6290    5.4230 C.3     2  LIG2       -0.0319
      5    C       27.8770    1.9740    4.4130 C.3     2  LIG2       -0.0294
      6    C       28.0700    1.2070    3.0810 C.3     2  LIG2       -0.0090
      7    C       30.1260    0.1010    5.3120 C.3     2  LIG2       -0.0468
      8    C       26.8010    3.0600    4.1440 C.3     2  LIG2       -0.0404
      9    C       28.5690   -0.2740    3.2130 C.3     2  LIG2        0.0664
     10    C       26.7230    1.3860    2.3530 C.3     2  LIG2       -0.0471
     11    C       29.9790   -0.4000    3.8590 C.3     2  LIG2       -0.0237
     12    C       30.3770    3.7020    6.9930 C.3     2  LIG2       -0.0593
     13    C       28.6590    1.8830    7.4990 C.3     2  LIG2       -0.0593
     14    C       26.2240    2.7740    2.7470 C.3     2  LIG2       -0.0498
     15    C       25.7320    3.1600    5.2480 C.3     2  LIG2       -0.0621
     16    C       27.5750   -1.2450    3.9030 C.3     2  LIG2       -0.0358
     17    H       29.5140    3.4430    4.3950 H       2  LIG2        0.0312
     18    H       31.3490    1.9090    5.2130 H       2  LIG2        0.0309
     19    H       27.4510    1.2670    5.1200 H       2  LIG2        0.0310
     20    H       28.8130    1.7510    2.4900 H       2  LIG2        0.0331
     21    H       31.0170   -0.3640    5.7360 H       2  LIG2        0.0269
     22    H       29.3020   -0.2650    5.9190 H       2  LIG2        0.0269
     23    H       27.2840    4.0370    4.0820 H       2  LIG2        0.0301
     24    H       26.8290    1.2970    1.2720 H       2  LIG2        0.0269
     25    H       25.9930    0.6410    2.6680 H       2  LIG2        0.0269
     26    H       30.7130    0.1300    3.2480 H       2  LIG2        0.0293
     27    H       30.2890   -1.4480    3.8370 H       2  LIG2        0.0293
     28    H       30.9940    3.4070    7.8420 H       2  LIG2        0.0235
     29    H       29.6980    4.4870    7.3270 H       2  LIG2        0.0235
     30    H       31.0400    4.1430    6.2480 H       2  LIG2        0.0235
     31    H       29.2340    1.5410    8.3610 H       2  LIG2        0.0235
     32    H       28.0780    1.0320    7.1540 H       2  LIG2        0.0235
     33    H       27.9460    2.6260    7.8560 H       2  LIG2        0.0235
     34    H       25.1330    2.8200    2.7230 H       2  LIG2        0.0268
     35    H       26.5860    3.5160    2.0350 H       2  LIG2        0.0268
     36    H       25.1820    2.2240    5.3550 H       2  LIG2        0.0233
     37    H       25.0090    3.9460    5.0260 H       2  LIG2        0.0233
     38    H       26.1850    3.3930    6.2120 H       2  LIG2        0.0233
     39    H       27.3230   -0.9340    4.9160 H       2  LIG2        0.0257
     40    H       27.9900   -2.2510    3.9780 H       2  LIG2        0.0257
     41    H       26.6390   -1.3420    3.3550 H       2  LIG2        0.0257
     42    H       29.3690   -0.2260    1.4380 H       2  LIG2        0.2102
@<TRIPOS>BOND
     1    24    10    1
     2    42     1    1
     3     1     9    1
     4    35    14    1
     5    10    25    1
     6    10    14    1
     7    10     6    1
     8    20     6    1
     9    34    14    1
    10    14     8    1
    11     6     9    1
    12     6     5    1
    13     9    11    1
    14     9    16    1
    15    26    11    1
    16    41    16    1
    17    27    11    1
    18    11     7    1
    19    16    40    1
    20    16    39    1
    21    23     8    1
    22     8     5    1
    23     8    15    1
    24    17     2    1
    25     5     2    1
    26     5    19    1
    27     2     4    1
    28     2     3    1
    29    37    15    1
    30    18     4    1
    31    15    36    1
    32    15    38    1
    33     7     4    1
    34     7    21    1
    35     7    22    1
    36     4     3    1
    37    30    12    1
    38     3    12    1
    39     3    13    1
    40    12    29    1
    41    12    28    1
    42    32    13    1
    43    13    33    1
    44    13    31    1
@<TRIPOS>MOLECULE
11996452_3_run_2.pdb
 42 44 0 0 0
SMALL
GASTEIGER

@<TRIPOS>ATOM
      1    O       28.1770    2.8930    7.1080 O.3     2  LIG2       -0.3886
      2    C       28.4470   -0.3770    3.9290 C.3     2  LIG2       -0.0289
      3    C       29.6310   -0.8140    3.0840 C.3     2  LIG2       -0.0284
      4    C       29.8490   -0.4790    4.5440 C.3     2  LIG2       -0.0319
      5    C       27.7720    1.0120    3.8050 C.3     2  LIG2       -0.0294
      6    C       27.4590    1.6650    5.1750 C.3     2  LIG2       -0.0090
      7    C       30.5660    0.7960    5.0370 C.3     2  LIG2       -0.0468
      8    C       26.4280    0.9500    3.0300 C.3     2  LIG2       -0.0404
      9    C       28.6520    2.4180    5.8590 C.3     2  LIG2        0.0664
     10    C       26.2090    2.5230    4.8980 C.3     2  LIG2       -0.0471
     11    C       29.8510    1.4920    6.2160 C.3     2  LIG2       -0.0237
     12    C       29.6870   -2.3040    2.6980 C.3     2  LIG2       -0.0593
     13    C       30.1970    0.0860    1.9600 C.3     2  LIG2       -0.0593
     14    C       25.4070    1.7570    3.8500 C.3     2  LIG2       -0.0498
     15    C       26.5380    1.3980    1.5620 C.3     2  LIG2       -0.0621
     16    C       29.1540    3.6780    5.1060 C.3     2  LIG2       -0.0358
     17    H       27.7370   -1.1420    4.2490 H       2  LIG2        0.0312
     18    H       30.0740   -1.3270    5.1930 H       2  LIG2        0.0309
     19    H       28.4180    1.7030    3.2720 H       2  LIG2        0.0310
     20    H       27.1410    0.8700    5.8550 H       2  LIG2        0.0331
     21    H       31.5560    0.4950    5.3800 H       2  LIG2        0.0269
     22    H       30.7510    1.5090    4.2380 H       2  LIG2        0.0269
     23    H       26.0680   -0.0810    3.0200 H       2  LIG2        0.0301
     24    H       25.6210    2.6910    5.8000 H       2  LIG2        0.0269
     25    H       26.4730    3.5030    4.5000 H       2  LIG2        0.0269
     26    H       29.5230    0.7170    6.9110 H       2  LIG2        0.0293
     27    H       30.5990    2.0710    6.7620 H       2  LIG2        0.0293
     28    H       30.7130   -2.6200    2.5100 H       2  LIG2        0.0235
     29    H       29.1050   -2.4970    1.7970 H       2  LIG2        0.0235
     30    H       29.2900   -2.9470    3.4840 H       2  LIG2        0.0235
     31    H       31.2370   -0.1700    1.7540 H       2  LIG2        0.0235
     32    H       30.1750    1.1500    2.1780 H       2  LIG2        0.0235
     33    H       29.6360   -0.0570    1.0360 H       2  LIG2        0.0235
     34    H       24.8140    2.4370    3.2350 H       2  LIG2        0.0268
     35    H       24.7040    1.0820    4.3390 H       2  LIG2        0.0268
     36    H       26.8700    2.4340    1.4860 H       2  LIG2        0.0233
     37    H       25.5760    1.3200    1.0530 H       2  LIG2        0.0233
     38    H       27.2500    0.7790    1.0140 H       2  LIG2        0.0233
     39    H       29.4960    3.4530    4.0970 H       2  LIG2        0.0257
     40    H       29.9940    4.1430    5.6250 H       2  LIG2        0.0257
     41    H       28.3870    4.4470    5.0210 H       2  LIG2        0.0257
     42    H       27.7910    2.1550    7.5870 H       2  LIG2        0.2102
@<TRIPOS>BOND
     1    38    15    1
     2    33    13    1
     3    37    15    1
     4    36    15    1
     5    15     8    1
     6    31    13    1
     7    29    12    1
     8    13    32    1
     9    13     3    1
    10    28    12    1
    11    12     3    1
    12    12    30    1
    13    23     8    1
    14     8     5    1
    15     8    14    1
    16     3     2    1
    17     3     4    1
    18    34    14    1
    19    19     5    1
    20     5     2    1
    21     5     6    1
    22    14    35    1
    23    14    10    1
    24     2    17    1
    25     2     4    1
    26    39    16    1
    27    22     7    1
    28    25    10    1
    29     4     7    1
    30     4    18    1
    31    10     6    1
    32    10    24    1
    33    41    16    1
    34     7    21    1
    35     7    11    1
    36    16    40    1
    37    16     9    1
    38     6    20    1
    39     6     9    1
    40     9    11    1
    41     9     1    1
    42    11    27    1
    43    11    26    1
    44     1    42    1
@<TRIPOS>MOLECULE
11996452_3_run_9.pdb
 42 44 0 0 0
SMALL
GASTEIGER

@<TRIPOS>ATOM
      1    O       28.8320   -0.8040    4.3570 O.3     2  LIG2       -0.3886
      2    C       26.0010    2.7140    5.0550 C.3     2  LIG2       -0.0289
      3    C       24.7370    3.1050    4.3090 C.3     2  LIG2       -0.0284
      4    C       24.9990    1.6430    4.6040 C.3     2  LIG2       -0.0319
      5    C       27.4150    2.7460    4.4190 C.3     2  LIG2       -0.0294
      6    C       28.2640    1.4940    4.7550 C.3     2  LIG2       -0.0090
      7    C       25.4090    0.6100    3.5340 C.3     2  LIG2       -0.0468
      8    C       28.2420    3.9760    4.8800 C.3     2  LIG2       -0.0404
      9    C       28.0010    0.2320    3.8600 C.3     2  LIG2        0.0664
     10    C       29.7140    2.0190    4.7450 C.3     2  LIG2       -0.0471
     11    C       26.5530   -0.3250    3.9820 C.3     2  LIG2       -0.0237
     12    C       23.6360    3.7930    5.1390 C.3     2  LIG2       -0.0593
     13    C       24.7880    3.6560    2.8650 C.3     2  LIG2       -0.0593
     14    C       29.6370    3.4520    5.2640 C.3     2  LIG2       -0.0498
     15    C       28.2730    5.1220    3.8530 C.3     2  LIG2       -0.0621
     16    C       28.3910    0.3910    2.3670 C.3     2  LIG2       -0.0358
     17    H       26.0400    2.8990    6.1290 H       2  LIG2        0.0312
     18    H       24.3470    1.1900    5.3530 H       2  LIG2        0.0309
     19    H       27.3440    2.7930    3.3360 H       2  LIG2        0.0310
     20    H       28.0460    1.2140    5.7890 H       2  LIG2        0.0331
     21    H       24.5330   -0.0090    3.3330 H       2  LIG2        0.0269
     22    H       25.6520    1.0680    2.5790 H       2  LIG2        0.0269
     23    H       27.8040    4.3810    5.7940 H       2  LIG2        0.0301
     24    H       30.3720    1.4090    5.3640 H       2  LIG2        0.0269
     25    H       30.1330    2.0250    3.7400 H       2  LIG2        0.0269
     26    H       26.3580   -0.6200    5.0140 H       2  LIG2        0.0293
     27    H       26.4760   -1.2460    3.3990 H       2  LIG2        0.0293
     28    H       22.6550    3.6350    4.6920 H       2  LIG2        0.0235
     29    H       23.8080    4.8680    5.2010 H       2  LIG2        0.0235
     30    H       23.5930    3.4130    6.1590 H       2  LIG2        0.0235
     31    H       23.8350    3.4930    2.3600 H       2  LIG2        0.0235
     32    H       25.5540    3.2080    2.2370 H       2  LIG2        0.0235
     33    H       24.9760    4.7300    2.8710 H       2  LIG2        0.0235
     34    H       30.4450    4.0610    4.8550 H       2  LIG2        0.0268
     35    H       29.7530    3.4610    6.3490 H       2  LIG2        0.0268
     36    H       28.7240    4.8020    2.9130 H       2  LIG2        0.0233
     37    H       28.8490    5.9700    4.2250 H       2  LIG2        0.0233
     38    H       27.2660    5.4800    3.6350 H       2  LIG2        0.0233
     39    H       27.8580    1.2060    1.8810 H       2  LIG2        0.0257
     40    H       28.1670   -0.5140    1.8000 H       2  LIG2        0.0257
     41    H       29.4560    0.5780    2.2320 H       2  LIG2        0.0257
     42    H       28.5490   -1.0180    5.2500 H       2  LIG2        0.2102
@<TRIPOS>BOND
     1    40    16    1
     2    39    16    1
     3    41    16    1
     4    32    13    1
     5    31    13    1
     6    16     9    1
     7    22     7    1
     8    13    33    1
     9    13     3    1
    10    36    15    1
    11    21     7    1
    12    19     5    1
    13    27    11    1
    14     7    11    1
    15     7     4    1
    16    38    15    1
    17    25    10    1
    18    15    37    1
    19    15     8    1
    20     9    11    1
    21     9     1    1
    22     9     6    1
    23    11    26    1
    24     3     4    1
    25     3     2    1
    26     3    12    1
    27     1    42    1
    28     5     6    1
    29     5     8    1
    30     5     2    1
    31     4     2    1
    32     4    18    1
    33    28    12    1
    34    10     6    1
    35    10    14    1
    36    10    24    1
    37     6    20    1
    38    34    14    1
    39     8    14    1
    40     8    23    1
    41     2    17    1
    42    12    29    1
    43    12    30    1
    44    14    35    1
