@<TRIPOS>MOLECULE
11996452_run_4.pdb
 42 44 0 0 0
SMALL
GASTEIGER

@<TRIPOS>ATOM
      1    O       30.3010    0.9460    5.9580 O.3     2  LIG2       -0.3886
      2    C       27.0320    1.8790    3.0810 C.3     2  LIG2       -0.0289
      3    C       25.8010    1.1290    2.5890 C.3     2  LIG2       -0.0284
      4    C       27.0100    0.3430    3.0370 C.3     2  LIG2       -0.0319
      5    C       27.1100    2.5770    4.4710 C.3     2  LIG2       -0.0294
      6    C       28.4260    2.3100    5.2760 C.3     2  LIG2       -0.0090
      7    C       27.1290   -0.3970    4.3830 C.3     2  LIG2       -0.0468
      8    C       26.9920    4.1190    4.4030 C.3     2  LIG2       -0.0404
      9    C       29.3020    1.0430    4.9550 C.3     2  LIG2        0.0664
     10    C       29.1790    3.6640    5.3170 C.3     2  LIG2       -0.0471
     11    C       28.5310   -0.3180    5.0260 C.3     2  LIG2       -0.0237
     12    C       24.4830    1.0920    3.3990 C.3     2  LIG2       -0.0593
     13    C       25.5300    1.1870    1.0740 C.3     2  LIG2       -0.0593
     14    C       28.4400    4.6100    4.3700 C.3     2  LIG2       -0.0498
     15    C       26.1030    4.6900    3.2790 C.3     2  LIG2       -0.0621
     16    C       30.1350    1.1330    3.6450 C.3     2  LIG2       -0.0358
     17    H       27.6510    2.3810    2.3370 H       2  LIG2        0.0312
     18    H       27.5650   -0.1710    2.2500 H       2  LIG2        0.0309
     19    H       26.2790    2.2300    5.0820 H       2  LIG2        0.0310
     20    H       28.0850    2.1500    6.3030 H       2  LIG2        0.0331
     21    H       26.4040   -0.0290    5.1050 H       2  LIG2        0.0269
     22    H       26.8660   -1.4450    4.2320 H       2  LIG2        0.0269
     23    H       26.5530    4.4600    5.3430 H       2  LIG2        0.0301
     24    H       29.1550    4.0690    6.3300 H       2  LIG2        0.0269
     25    H       30.2330    3.5920    5.0510 H       2  LIG2        0.0269
     26    H       28.3950   -0.6070    6.0720 H       2  LIG2        0.0293
     27    H       29.1490   -1.1060    4.5920 H       2  LIG2        0.0293
     28    H       23.8780    0.2340    3.1050 H       2  LIG2        0.0235
     29    H       23.8930    1.9890    3.2130 H       2  LIG2        0.0235
     30    H       24.6150    1.0200    4.4760 H       2  LIG2        0.0235
     31    H       24.9550    0.3210    0.7450 H       2  LIG2        0.0235
     32    H       26.4520    1.2040    0.4920 H       2  LIG2        0.0235
     33    H       24.9670    2.0830    0.8130 H       2  LIG2        0.0235
     34    H       28.8490    4.5360    3.3610 H       2  LIG2        0.0268
     35    H       28.5300    5.6490    4.6880 H       2  LIG2        0.0268
     36    H       26.5030    4.4740    2.2880 H       2  LIG2        0.0233
     37    H       26.0180    5.7740    3.3670 H       2  LIG2        0.0233
     38    H       25.0950    4.2780    3.3300 H       2  LIG2        0.0233
     39    H       29.5290    1.1730    2.7450 H       2  LIG2        0.0257
     40    H       30.7890    0.2660    3.5280 H       2  LIG2        0.0257
     41    H       30.7830    2.0080    3.6210 H       2  LIG2        0.0257
     42    H       30.8690    0.2020    5.7490 H       2  LIG2        0.2102
@<TRIPOS>BOND
     1    32    13    1
     2    31    13    1
     3    33    13    1
     4    13     3    1
     5    18     4    1
     6    36    15    1
     7    17     2    1
     8     3     4    1
     9     3     2    1
    10     3    12    1
    11    39    16    1
    12     4     2    1
    13     4     7    1
    14     2     5    1
    15    28    12    1
    16    29    12    1
    17    15    38    1
    18    15    37    1
    19    15     8    1
    20    34    14    1
    21    12    30    1
    22    40    16    1
    23    41    16    1
    24    16     9    1
    25    22     7    1
    26    14     8    1
    27    14    35    1
    28    14    10    1
    29     7    11    1
    30     7    21    1
    31     8     5    1
    32     8    23    1
    33     5    19    1
    34     5     6    1
    35    27    11    1
    36     9    11    1
    37     9     6    1
    38     9     1    1
    39    11    26    1
    40    25    10    1
    41     6    10    1
    42     6    20    1
    43    10    24    1
    44    42     1    1
@<TRIPOS>MOLECULE
11996452_run_1.pdb
 42 44 0 0 0
SMALL
GASTEIGER

@<TRIPOS>ATOM
      1    O       22.5530    3.6430    4.4290 O.3     2  LIG2       -0.3886
      2    C       26.9900    3.2780    4.2920 C.3     2  LIG2       -0.0289
      3    C       27.9550    2.1390    3.9890 C.3     2  LIG2       -0.0284
      4    C       26.6000    1.8180    4.5740 C.3     2  LIG2       -0.0319
      5    C       26.2070    4.0510    3.1900 C.3     2  LIG2       -0.0294
      6    C       24.6870    4.2790    3.4880 C.3     2  LIG2       -0.0090
      7    C       25.4120    1.2450    3.7770 C.3     2  LIG2       -0.0468
      8    C       26.7700    5.4640    2.8990 C.3     2  LIG2       -0.0404
      9    C       23.9390    3.3450    4.5110 C.3     2  LIG2        0.0664
     10    C       24.5230    5.8030    3.7130 C.3     2  LIG2       -0.0471
     11    C       24.0380    1.8160    4.1920 C.3     2  LIG2       -0.0237
     12    C       28.3140    1.7300    2.5410 C.3     2  LIG2       -0.0593
     13    C       29.1680    2.0080    4.9300 C.3     2  LIG2       -0.0593
     14    C       25.9310    6.3950    3.7770 C.3     2  LIG2       -0.0498
     15    C       28.2930    5.6430    3.0620 C.3     2  LIG2       -0.0621
     16    C       24.2620    3.6160    6.0080 C.3     2  LIG2       -0.0358
     17    H       27.2000    3.9050    5.1590 H       2  LIG2        0.0312
     18    H       26.5950    1.4620    5.6050 H       2  LIG2        0.0309
     19    H       26.2760    3.4940    2.2580 H       2  LIG2        0.0310
     20    H       24.1940    4.0830    2.5320 H       2  LIG2        0.0331
     21    H       25.5350    1.4040    2.7080 H       2  LIG2        0.0269
     22    H       25.3980    0.1610    3.8980 H       2  LIG2        0.0269
     23    H       26.5430    5.7050    1.8580 H       2  LIG2        0.0301
     24    H       23.9800    6.2430    2.8750 H       2  LIG2        0.0269
     25    H       23.9520    6.0600    4.6050 H       2  LIG2        0.0269
     26    H       23.3540    1.5670    3.3770 H       2  LIG2        0.0293
     27    H       23.6790    1.2440    5.0500 H       2  LIG2        0.0293
     28    H       28.6860    0.7040    2.5150 H       2  LIG2        0.0235
     29    H       29.0990    2.3730    2.1440 H       2  LIG2        0.0235
     30    H       27.4860    1.7740    1.8390 H       2  LIG2        0.0235
     31    H       29.5390    0.9830    4.9500 H       2  LIG2        0.0235
     32    H       28.9230    2.2850    5.9560 H       2  LIG2        0.0235
     33    H       29.9840    2.6540    4.6060 H       2  LIG2        0.0235
     34    H       26.3000    6.3920    4.8040 H       2  LIG2        0.0268
     35    H       25.9510    7.4250    3.4200 H       2  LIG2        0.0268
     36    H       28.6170    5.5040    4.0940 H       2  LIG2        0.0233
     37    H       28.6000    6.6430    2.7560 H       2  LIG2        0.0233
     38    H       28.8390    4.9300    2.4420 H       2  LIG2        0.0233
     39    H       25.2910    3.3990    6.2780 H       2  LIG2        0.0257
     40    H       23.6430    3.0030    6.6660 H       2  LIG2        0.0257
     41    H       24.0770    4.6510    6.2950 H       2  LIG2        0.0257
     42    H       22.2370    3.3790    3.5620 H       2  LIG2        0.2102
@<TRIPOS>BOND
     1    30    12    1
     2    23     8    1
     3    29    12    1
     4    19     5    1
     5    38    15    1
     6    28    12    1
     7    20     6    1
     8    12     3    1
     9    21     7    1
    10    37    15    1
    11    24    10    1
    12     8    15    1
    13     8     5    1
    14     8    14    1
    15    15    36    1
    16     5     6    1
    17     5     2    1
    18    26    11    1
    19    35    14    1
    20     6    10    1
    21     6     9    1
    22    42     1    1
    23    10    14    1
    24    10    25    1
    25     7    22    1
    26     7    11    1
    27     7     4    1
    28    14    34    1
    29     3     2    1
    30     3     4    1
    31     3    13    1
    32    11     9    1
    33    11    27    1
    34     2     4    1
    35     2    17    1
    36     1     9    1
    37     9    16    1
    38     4    18    1
    39    33    13    1
    40    13    31    1
    41    13    32    1
    42    16    39    1
    43    16    41    1
    44    16    40    1
@<TRIPOS>MOLECULE
11996452_run_16.pdb
 42 44 0 0 0
SMALL
GASTEIGER

@<TRIPOS>ATOM
      1    O       26.6810    6.8530    4.1550 O.3     2  LIG2       -0.3886
      2    C       26.8100    2.4730    3.3560 C.3     2  LIG2       -0.0289
      3    C       27.8310    1.3730    3.6200 C.3     2  LIG2       -0.0284
      4    C       28.3130    2.7890    3.4140 C.3     2  LIG2       -0.0319
      5    C       25.8890    3.0670    4.4610 C.3     2  LIG2       -0.0294
      6    C       25.7890    4.6290    4.4760 C.3     2  LIG2       -0.0090
      7    C       28.7880    3.7290    4.5390 C.3     2  LIG2       -0.0468
      8    C       24.4220    2.5770    4.3810 C.3     2  LIG2       -0.0404
      9    C       26.9240    5.4960    3.8150 C.3     2  LIG2        0.0664
     10    C       24.3390    4.9660    4.0450 C.3     2  LIG2       -0.0471
     11    C       28.3650    5.2030    4.3520 C.3     2  LIG2       -0.0237
     12    C       27.9560    0.6820    4.9980 C.3     2  LIG2       -0.0593
     13    C       28.0730    0.3800    2.4670 C.3     2  LIG2       -0.0593
     14    C       23.7040    3.6580    3.5710 C.3     2  LIG2       -0.0498
     15    C       24.2060    1.1430    3.8550 C.3     2  LIG2       -0.0621
     16    C       26.9120    5.5210    2.2610 C.3     2  LIG2       -0.0358
     17    H       26.3410    2.5050    2.3720 H       2  LIG2        0.0312
     18    H       28.8490    2.9820    2.4830 H       2  LIG2        0.0309
     19    H       26.2650    2.7550    5.4340 H       2  LIG2        0.0310
     20    H       25.8320    4.8910    5.5370 H       2  LIG2        0.0331
     21    H       28.4340    3.3960    5.5120 H       2  LIG2        0.0269
     22    H       29.8760    3.6770    4.6050 H       2  LIG2        0.0269
     23    H       24.0090    2.5970    5.3920 H       2  LIG2        0.0301
     24    H       23.7810    5.3540    4.8980 H       2  LIG2        0.0269
     25    H       24.2740    5.7320    3.2730 H       2  LIG2        0.0269
     26    H       28.4950    5.6750    5.3290 H       2  LIG2        0.0293
     27    H       29.0980    5.6860    3.7030 H       2  LIG2        0.0293
     28    H       28.9420    0.2280    5.1090 H       2  LIG2        0.0235
     29    H       27.2170   -0.1120    5.0980 H       2  LIG2        0.0235
     30    H       27.8240    1.3430    5.8500 H       2  LIG2        0.0235
     31    H       29.0660   -0.0630    2.5340 H       2  LIG2        0.0235
     32    H       27.9960    0.8590    1.4900 H       2  LIG2        0.0235
     33    H       27.3420   -0.4280    2.4890 H       2  LIG2        0.0235
     34    H       23.8740    3.5160    2.5030 H       2  LIG2        0.0268
     35    H       22.6270    3.6500    3.7390 H       2  LIG2        0.0268
     36    H       24.5120    1.0350    2.8140 H       2  LIG2        0.0233
     37    H       23.1530    0.8640    3.9150 H       2  LIG2        0.0233
     38    H       24.7690    0.4200    4.4470 H       2  LIG2        0.0233
     39    H       27.1270    4.5580    1.8070 H       2  LIG2        0.0257
     40    H       27.6620    6.2110    1.8680 H       2  LIG2        0.0257
     41    H       25.9560    5.8490    1.8550 H       2  LIG2        0.0257
     42    H       26.6880    6.9320    5.1110 H       2  LIG2        0.2102
@<TRIPOS>BOND
     1    32    13    1
     2    39    16    1
     3    41    16    1
     4    40    16    1
     5    16     9    1
     6    17     2    1
     7    13    33    1
     8    13    31    1
     9    13     3    1
    10    18     4    1
    11    34    14    1
    12    36    15    1
    13    25    10    1
    14     2     4    1
    15     2     3    1
    16     2     5    1
    17     4     3    1
    18     4     7    1
    19    14    35    1
    20    14    10    1
    21    14     8    1
    22     3    12    1
    23    27    11    1
    24     9     1    1
    25     9    11    1
    26     9     6    1
    27    15    37    1
    28    15     8    1
    29    15    38    1
    30    10     6    1
    31    10    24    1
    32     1    42    1
    33    11     7    1
    34    11    26    1
    35     8     5    1
    36     8    23    1
    37     5     6    1
    38     5    19    1
    39     6    20    1
    40     7    22    1
    41     7    21    1
    42    12    29    1
    43    12    28    1
    44    12    30    1
@<TRIPOS>MOLECULE
11996452_run_2.pdb
 42 44 0 0 0
SMALL
GASTEIGER

@<TRIPOS>ATOM
      1    O       27.4300   -1.5300    3.8330 O.3     2  LIG2       -0.3886
      2    C       28.1860    2.8580    3.7710 C.3     2  LIG2       -0.0289
      3    C       27.3430    4.0780    3.4190 C.3     2  LIG2       -0.0284
      4    C       27.0430    2.7590    2.7480 C.3     2  LIG2       -0.0319
      5    C       28.0440    2.0810    5.1120 C.3     2  LIG2       -0.0294
      6    C       27.9990    0.5220    4.9770 C.3     2  LIG2       -0.0090
      7    C       25.8600    1.8390    3.1060 C.3     2  LIG2       -0.0468
      8    C       29.1870    2.3580    6.1190 C.3     2  LIG2       -0.0404
      9    C       27.5810   -0.1370    3.6100 C.3     2  LIG2        0.0664
     10    C       29.3180    0.0040    5.6060 C.3     2  LIG2       -0.0471
     11    C       26.1940    0.3320    3.0570 C.3     2  LIG2       -0.0237
     12    C       26.3470    4.7060    4.4210 C.3     2  LIG2       -0.0593
     13    C       28.0340    5.1550    2.5600 C.3     2  LIG2       -0.0593
     14    C       30.1900    1.2290    5.8760 C.3     2  LIG2       -0.0498
     15    C       29.8030    3.7720    6.0850 C.3     2  LIG2       -0.0621
     16    C       28.6630   -0.0810    2.4940 C.3     2  LIG2       -0.0358
     17    H       29.2010    2.8110    3.3770 H       2  LIG2        0.0312
     18    H       27.2890    2.6950    1.6860 H       2  LIG2        0.0309
     19    H       27.1210    2.3910    5.6000 H       2  LIG2        0.0310
     20    H       27.2170    0.2130    5.6760 H       2  LIG2        0.0331
     21    H       25.4650    2.0660    4.0940 H       2  LIG2        0.0269
     22    H       25.0360    2.0440    2.4220 H       2  LIG2        0.0269
     23    H       28.7840    2.2250    7.1260 H       2  LIG2        0.0301
     24    H       29.1020   -0.5060    6.5460 H       2  LIG2        0.0269
     25    H       29.8470   -0.7220    4.9880 H       2  LIG2        0.0269
     26    H       25.3930   -0.1680    3.6080 H       2  LIG2        0.0293
     27    H       26.0830   -0.0060    2.0250 H       2  LIG2        0.0293
     28    H       25.5920    5.2910    3.8940 H       2  LIG2        0.0235
     29    H       26.8640    5.3790    5.1050 H       2  LIG2        0.0235
     30    H       25.8080    3.9890    5.0340 H       2  LIG2        0.0235
     31    H       27.3040    5.7330    1.9940 H       2  LIG2        0.0235
     32    H       28.7320    4.7220    1.8430 H       2  LIG2        0.0235
     33    H       28.5990    5.8480    3.1840 H       2  LIG2        0.0235
     34    H       30.8160    1.4510    5.0100 H       2  LIG2        0.0268
     35    H       30.8490    1.0740    6.7300 H       2  LIG2        0.0268
     36    H       30.3100    3.9780    5.1410 H       2  LIG2        0.0233
     37    H       30.5370    3.8930    6.8820 H       2  LIG2        0.0233
     38    H       29.0380    4.5360    6.2270 H       2  LIG2        0.0233
     39    H       28.8880    0.9250    2.1540 H       2  LIG2        0.0257
     40    H       28.3490   -0.6340    1.6060 H       2  LIG2        0.0257
     41    H       29.6090   -0.5210    2.8070 H       2  LIG2        0.0257
     42    H       28.2110   -1.8510    4.2890 H       2  LIG2        0.2102
@<TRIPOS>BOND
     1    40    16    1
     2    18     4    1
     3    32    13    1
     4    31    13    1
     5    27    11    1
     6    39    16    1
     7    22     7    1
     8    16    41    1
     9    16     9    1
    10    13    33    1
    11    13     3    1
    12     4     7    1
    13     4     3    1
    14     4     2    1
    15    11     7    1
    16    11    26    1
    17    11     9    1
    18     7    21    1
    19    17     2    1
    20     3     2    1
    21     3    12    1
    22     9     1    1
    23     9     6    1
    24     2     5    1
    25     1    42    1
    26    28    12    1
    27    12    30    1
    28    12    29    1
    29     6     5    1
    30     6    10    1
    31     6    20    1
    32    25    10    1
    33    34    14    1
    34     5    19    1
    35     5     8    1
    36    36    15    1
    37    10    14    1
    38    10    24    1
    39    14     8    1
    40    14    35    1
    41    15     8    1
    42    15    38    1
    43    15    37    1
    44     8    23    1
@<TRIPOS>MOLECULE
11996452_run_5.pdb
 42 44 0 0 0
SMALL
GASTEIGER

@<TRIPOS>ATOM
      1    O       28.6980   -0.8560    1.7870 O.3     2  LIG2       -0.3886
      2    C       28.2470    1.6180    5.4630 C.3     2  LIG2       -0.0289
      3    C       29.2230    2.2130    6.4710 C.3     2  LIG2       -0.0284
      4    C       29.5990    0.9420    5.7470 C.3     2  LIG2       -0.0319
      5    C       28.0070    2.2200    4.0480 C.3     2  LIG2       -0.0294
      6    C       27.9890    1.1820    2.8770 C.3     2  LIG2       -0.0090
      7    C       30.5990    0.8600    4.5780 C.3     2  LIG2       -0.0468
      8    C       26.6700    2.9900    3.9160 C.3     2  LIG2       -0.0404
      9    C       28.6910   -0.2160    3.0540 C.3     2  LIG2        0.0664
     10    C       26.5270    1.1480    2.3620 C.3     2  LIG2       -0.0471
     11    C       30.1980   -0.1410    3.4720 C.3     2  LIG2       -0.0237
     12    C       29.9770    3.5360    6.2020 C.3     2  LIG2       -0.0593
     13    C       28.8320    2.0790    7.9550 C.3     2  LIG2       -0.0593
     14    C       25.6910    1.9570    3.3540 C.3     2  LIG2       -0.0498
     15    C       26.1680    3.7150    5.1820 C.3     2  LIG2       -0.0621
     16    C       27.9230   -1.2290    3.9490 C.3     2  LIG2       -0.0358
     17    H       27.3600    1.1170    5.8510 H       2  LIG2        0.0312
     18    H       29.6190    0.0350    6.3520 H       2  LIG2        0.0309
     19    H       28.7970    2.9380    3.8360 H       2  LIG2        0.0310
     20    H       28.5550    1.6690    2.0780 H       2  LIG2        0.0331
     21    H       30.7520    1.8320    4.1150 H       2  LIG2        0.0269
     22    H       31.5780    0.5810    4.9710 H       2  LIG2        0.0269
     23    H       26.8030    3.7610    3.1550 H       2  LIG2        0.0301
     24    H       26.4730    1.6120    1.3760 H       2  LIG2        0.0269
     25    H       26.1240    0.1430    2.2420 H       2  LIG2        0.0269
     26    H       30.8060    0.1180    2.6020 H       2  LIG2        0.0293
     27    H       30.5390   -1.1330    3.7730 H       2  LIG2        0.0293
     28    H       30.8730    3.5980    6.8210 H       2  LIG2        0.0235
     29    H       29.3500    4.3930    6.4470 H       2  LIG2        0.0235
     30    H       30.3040    3.6700    5.1740 H       2  LIG2        0.0235
     31    H       29.7130    2.1030    8.5970 H       2  LIG2        0.0235
     32    H       28.3070    1.1450    8.1590 H       2  LIG2        0.0235
     33    H       28.1730    2.8930    8.2600 H       2  LIG2        0.0235
     34    H       25.3120    1.3120    4.1490 H       2  LIG2        0.0268
     35    H       24.8340    2.4240    2.8700 H       2  LIG2        0.0268
     36    H       25.9230    3.0200    5.9860 H       2  LIG2        0.0233
     37    H       25.2680    4.2920    4.9660 H       2  LIG2        0.0233
     38    H       26.9190    4.4100    5.5590 H       2  LIG2        0.0233
     39    H       27.8510   -0.9240    4.9890 H       2  LIG2        0.0257
     40    H       28.4120   -2.2050    3.9560 H       2  LIG2        0.0257
     41    H       26.9040   -1.4020    3.6050 H       2  LIG2        0.0257
     42    H       29.1650   -0.2930    1.1660 H       2  LIG2        0.2102
@<TRIPOS>BOND
     1    42     1    1
     2    24    10    1
     3     1     9    1
     4    20     6    1
     5    25    10    1
     6    10     6    1
     7    10    14    1
     8    26    11    1
     9    35    14    1
    10     6     9    1
    11     6     5    1
    12     9    11    1
    13     9    16    1
    14    23     8    1
    15    14     8    1
    16    14    34    1
    17    11    27    1
    18    11     7    1
    19    41    16    1
    20    19     5    1
    21     8     5    1
    22     8    15    1
    23    16    40    1
    24    16    39    1
    25     5     2    1
    26    21     7    1
    27     7    22    1
    28     7     4    1
    29    37    15    1
    30    30    12    1
    31    15    38    1
    32    15    36    1
    33     2     4    1
    34     2    17    1
    35     2     3    1
    36     4    18    1
    37     4     3    1
    38    12    29    1
    39    12     3    1
    40    12    28    1
    41     3    13    1
    42    13    32    1
    43    13    33    1
    44    13    31    1
@<TRIPOS>MOLECULE
11996452_run_9.pdb
 42 44 0 0 0
SMALL
GASTEIGER

@<TRIPOS>ATOM
      1    O       31.0990    0.8250    5.5590 O.3     2  LIG2       -0.3886
      2    C       27.0970    2.3830    4.3790 C.3     2  LIG2       -0.0289
      3    C       26.4580    3.7660    4.3570 C.3     2  LIG2       -0.0284
      4    C       27.5370    3.4710    5.3710 C.3     2  LIG2       -0.0319
      5    C       28.1230    1.8980    3.3130 C.3     2  LIG2       -0.0294
      6    C       29.3900    1.1790    3.8870 C.3     2  LIG2       -0.0090
      7    C       28.9940    3.9610    5.2710 C.3     2  LIG2       -0.0468
      8    C       27.5320    0.9000    2.2870 C.3     2  LIG2       -0.0404
      9    C       29.8270    1.4280    5.3780 C.3     2  LIG2        0.0664
     10    C       29.2700   -0.3040    3.4520 C.3     2  LIG2       -0.0471
     11    C       30.0420    2.9330    5.7530 C.3     2  LIG2       -0.0237
     12    C       26.7020    4.7650    3.2010 C.3     2  LIG2       -0.0593
     13    C       25.0130    3.8550    4.8830 C.3     2  LIG2       -0.0593
     14    C       27.8730   -0.4780    2.8580 C.3     2  LIG2       -0.0498
     15    C       26.0440    1.0870    1.9270 C.3     2  LIG2       -0.0621
     16    C       28.9520    0.7160    6.4480 C.3     2  LIG2       -0.0358
     17    H       26.5100    1.5590    4.7860 H       2  LIG2        0.0312
     18    H       27.2120    3.4020    6.4100 H       2  LIG2        0.0309
     19    H       28.4670    2.7590    2.7430 H       2  LIG2        0.0310
     20    H       30.2170    1.5780    3.2930 H       2  LIG2        0.0331
     21    H       29.2480    4.2510    4.2540 H       2  LIG2        0.0269
     22    H       29.0990    4.8760    5.8560 H       2  LIG2        0.0269
     23    H       28.0890    1.0140    1.3540 H       2  LIG2        0.0301
     24    H       30.0210   -0.5270    2.6920 H       2  LIG2        0.0269
     25    H       29.4410   -1.0160    4.2590 H       2  LIG2        0.0269
     26    H       31.0000    3.2760    5.3550 H       2  LIG2        0.0293
     27    H       30.1340    3.0260    6.8370 H       2  LIG2        0.0293
     28    H       26.4960    5.7850    3.5280 H       2  LIG2        0.0235
     29    H       26.0410    4.5500    2.3620 H       2  LIG2        0.0235
     30    H       27.7160    4.7660    2.8100 H       2  LIG2        0.0235
     31    H       24.7900    4.8560    5.2500 H       2  LIG2        0.0235
     32    H       24.8320    3.1600    5.7050 H       2  LIG2        0.0235
     33    H       24.2960    3.6180    4.0960 H       2  LIG2        0.0235
     34    H       27.1590   -0.7600    3.6340 H       2  LIG2        0.0268
     35    H       27.8550   -1.2550    2.0930 H       2  LIG2        0.0268
     36    H       25.3880    0.9110    2.7800 H       2  LIG2        0.0233
     37    H       25.7470    0.3930    1.1400 H       2  LIG2        0.0233
     38    H       25.8530    2.0960    1.5610 H       2  LIG2        0.0233
     39    H       27.9310    1.0820    6.4910 H       2  LIG2        0.0257
     40    H       29.3610    0.8510    7.4520 H       2  LIG2        0.0257
     41    H       28.8890   -0.3600    6.2880 H       2  LIG2        0.0257
     42    H       31.6570    1.0670    4.8160 H       2  LIG2        0.2102
@<TRIPOS>BOND
     1    37    15    1
     2    23     8    1
     3    38    15    1
     4    15     8    1
     5    15    36    1
     6    35    14    1
     7     8    14    1
     8     8     5    1
     9    29    12    1
    10    24    10    1
    11    19     5    1
    12    30    12    1
    13    14    10    1
    14    14    34    1
    15    12    28    1
    16    12     3    1
    17    20     6    1
    18     5     6    1
    19     5     2    1
    20    10     6    1
    21    10    25    1
    22     6     9    1
    23    33    13    1
    24    21     7    1
    25     3     2    1
    26     3    13    1
    27     3     4    1
    28     2    17    1
    29     2     4    1
    30    42     1    1
    31    13    31    1
    32    13    32    1
    33     7     4    1
    34     7    11    1
    35     7    22    1
    36    26    11    1
    37     4    18    1
    38     9     1    1
    39     9    11    1
    40     9    16    1
    41    11    27    1
    42    41    16    1
    43    16    39    1
    44    16    40    1
@<TRIPOS>MOLECULE
11996452_run_19.pdb
 42 44 0 0 0
SMALL
GASTEIGER

@<TRIPOS>ATOM
      1    O       29.1880    3.6720    7.0810 O.3     2  LIG2       -0.3886
      2    C       28.7280    0.8650    3.6540 C.3     2  LIG2       -0.0289
      3    C       28.9300   -0.6350    3.4720 C.3     2  LIG2       -0.0284
      4    C       29.7530    0.0980    4.5050 C.3     2  LIG2       -0.0319
      5    C       27.4890    1.4800    4.3680 C.3     2  LIG2       -0.0294
      6    C       27.8100    2.6090    5.4040 C.3     2  LIG2       -0.0090
      7    C       29.5030    0.0480    6.0250 C.3     2  LIG2       -0.0468
      8    C       26.4600    2.1110    3.3990 C.3     2  LIG2       -0.0404
      9    C       29.2440    2.7040    6.0440 C.3     2  LIG2        0.0664
     10    C       27.2510    3.9180    4.7900 C.3     2  LIG2       -0.0471
     11    C       29.7320    1.3930    6.7480 C.3     2  LIG2       -0.0237
     12    C       27.8570   -1.6650    3.8940 C.3     2  LIG2       -0.0593
     13    C       29.6560   -1.0710    2.1860 C.3     2  LIG2       -0.0593
     14    C       26.8390    3.5920    3.3550 C.3     2  LIG2       -0.0498
     15    C       26.3280    1.4500    2.0120 C.3     2  LIG2       -0.0621
     16    C       30.3480    3.2670    5.1050 C.3     2  LIG2       -0.0358
     17    H       29.1280    1.5270    2.8860 H       2  LIG2        0.0312
     18    H       30.8150    0.2090    4.2810 H       2  LIG2        0.0309
     19    H       26.9650    0.6880    4.9010 H       2  LIG2        0.0310
     20    H       27.1500    2.3930    6.2490 H       2  LIG2        0.0331
     21    H       28.4940   -0.2900    6.2510 H       2  LIG2        0.0269
     22    H       30.1550   -0.7080    6.4640 H       2  LIG2        0.0269
     23    H       25.4750    2.0410    3.8660 H       2  LIG2        0.0301
     24    H       26.3770    4.2460    5.3550 H       2  LIG2        0.0269
     25    H       27.9520    4.7520    4.8150 H       2  LIG2        0.0269
     26    H       29.2430    1.2960    7.7200 H       2  LIG2        0.0293
     27    H       30.7970    1.4800    6.9730 H       2  LIG2        0.0293
     28    H       28.3080   -2.6470    4.0460 H       2  LIG2        0.0235
     29    H       27.0990   -1.7700    3.1180 H       2  LIG2        0.0235
     30    H       27.3320   -1.4230    4.8140 H       2  LIG2        0.0235
     31    H       30.1480   -2.0350    2.3200 H       2  LIG2        0.0235
     32    H       30.4230   -0.3560    1.8840 H       2  LIG2        0.0235
     33    H       28.9560   -1.1640    1.3550 H       2  LIG2        0.0235
     34    H       27.6750    3.7560    2.6710 H       2  LIG2        0.0268
     35    H       26.0120    4.2190    3.0210 H       2  LIG2        0.0268
     36    H       27.2410    1.5390    1.4230 H       2  LIG2        0.0233
     37    H       25.5240    1.9120    1.4380 H       2  LIG2        0.0233
     38    H       26.0930    0.3880    2.1050 H       2  LIG2        0.0233
     39    H       30.5670    2.6260    4.2560 H       2  LIG2        0.0257
     40    H       31.2950    3.3950    5.6350 H       2  LIG2        0.0257
     41    H       30.0930    4.2440    4.6990 H       2  LIG2        0.0257
     42    H       30.0140    3.6430    7.5670 H       2  LIG2        0.2102
@<TRIPOS>BOND
     1    33    13    1
     2    36    15    1
     3    37    15    1
     4    32    13    1
     5    15    38    1
     6    15     8    1
     7    13    31    1
     8    13     3    1
     9    34    14    1
    10    17     2    1
    11    35    14    1
    12    29    12    1
    13    14     8    1
    14    14    10    1
    15     8    23    1
    16     8     5    1
    17     3     2    1
    18     3    12    1
    19     3     4    1
    20     2     5    1
    21     2     4    1
    22    12    28    1
    23    12    30    1
    24    39    16    1
    25    18     4    1
    26     5    19    1
    27     5     6    1
    28     4     7    1
    29    41    16    1
    30    10    25    1
    31    10    24    1
    32    10     6    1
    33    16    40    1
    34    16     9    1
    35     6     9    1
    36     6    20    1
    37     7    21    1
    38     7    22    1
    39     7    11    1
    40     9    11    1
    41     9     1    1
    42    11    27    1
    43    11    26    1
    44     1    42    1
@<TRIPOS>MOLECULE
11996452_run_19.pdb
 42 44 0 0 0
SMALL
GASTEIGER

@<TRIPOS>ATOM
      1    O       30.0990    3.0830    4.4910 O.3     2  LIG2       -0.3886
      2    C       25.6500    2.8620    4.4790 C.3     2  LIG2       -0.0289
      3    C       24.5340    3.8970    4.4170 C.3     2  LIG2       -0.0284
      4    C       25.8560    4.2790    5.0380 C.3     2  LIG2       -0.0319
      5    C       26.4850    2.4310    3.2380 C.3     2  LIG2       -0.0294
      6    C       28.0320    2.3580    3.4680 C.3     2  LIG2       -0.0090
      7    C       26.9280    5.1510    4.3570 C.3     2  LIG2       -0.0468
      8    C       26.1020    1.0380    2.6800 C.3     2  LIG2       -0.0404
      9    C       28.6900    3.1680    4.6460 C.3     2  LIG2        0.0664
     10    C       28.4030    0.8550    3.3860 C.3     2  LIG2       -0.0471
     11    C       28.3790    4.7030    4.6360 C.3     2  LIG2       -0.0237
     12    C       24.0700    4.5260    3.0820 C.3     2  LIG2       -0.0593
     13    C       23.3500    3.6770    5.3780 C.3     2  LIG2       -0.0593
     14    C       27.0880    0.0780    3.3480 C.3     2  LIG2       -0.0498
     15    C       24.6220    0.6260    2.8210 C.3     2  LIG2       -0.0621
     16    C       28.4620    2.5710    6.0640 C.3     2  LIG2       -0.0358
     17    H       25.5570    2.0570    5.2080 H       2  LIG2        0.0312
     18    H       25.8530    4.4250    6.1190 H       2  LIG2        0.0309
     19    H       26.3090    3.1440    2.4340 H       2  LIG2        0.0310
     20    H       28.4590    2.8010    2.5640 H       2  LIG2        0.0331
     21    H       26.7860    5.1870    3.2790 H       2  LIG2        0.0269
     22    H       26.8050    6.1830    4.6890 H       2  LIG2        0.0269
     23    H       26.3190    1.0360    1.6100 H       2  LIG2        0.0301
     24    H       28.9670    0.6640    2.4720 H       2  LIG2        0.0269
     25    H       29.0350    0.5110    4.2040 H       2  LIG2        0.0269
     26    H       28.9940    5.1960    3.8790 H       2  LIG2        0.0293
     27    H       28.6930    5.1410    5.5860 H       2  LIG2        0.0293
     28    H       23.5660    5.4770    3.2630 H       2  LIG2        0.0235
     29    H       23.3610    3.8720    2.5750 H       2  LIG2        0.0235
     30    H       24.8700    4.7320    2.3760 H       2  LIG2        0.0235
     31    H       22.8490    4.6180    5.6050 H       2  LIG2        0.0235
     32    H       23.6670    3.2420    6.3270 H       2  LIG2        0.0235
     33    H       22.6140    3.0010    4.9430 H       2  LIG2        0.0235
     34    H       26.7600   -0.1690    4.3590 H       2  LIG2        0.0268
     35    H       27.1890   -0.8570    2.7950 H       2  LIG2        0.0268
     36    H       24.3220    0.5170    3.8640 H       2  LIG2        0.0233
     37    H       24.4380   -0.3280    2.3280 H       2  LIG2        0.0233
     38    H       23.9650    1.3640    2.3600 H       2  LIG2        0.0233
     39    H       27.4240    2.5900    6.3830 H       2  LIG2        0.0257
     40    H       29.0190    3.1240    6.8230 H       2  LIG2        0.0257
     41    H       28.7910    1.5360    6.1390 H       2  LIG2        0.0257
     42    H       30.3490    3.5880    3.7150 H       2  LIG2        0.2102
@<TRIPOS>BOND
     1    23     8    1
     2    37    15    1
     3    38    15    1
     4    30    12    1
     5    19     5    1
     6    24    10    1
     7    20     6    1
     8    29    12    1
     9     8    15    1
    10     8     5    1
    11     8    14    1
    12    35    14    1
    13    15    36    1
    14    12    28    1
    15    12     3    1
    16     5     6    1
    17     5     2    1
    18    21     7    1
    19    14    10    1
    20    14    34    1
    21    10     6    1
    22    10    25    1
    23     6     9    1
    24    42     1    1
    25    26    11    1
    26     7    11    1
    27     7    22    1
    28     7     4    1
    29     3     2    1
    30     3     4    1
    31     3    13    1
    32     2     4    1
    33     2    17    1
    34     1     9    1
    35    11     9    1
    36    11    27    1
    37     9    16    1
    38    33    13    1
    39     4    18    1
    40    13    31    1
    41    13    32    1
    42    16    41    1
    43    16    39    1
    44    16    40    1
@<TRIPOS>MOLECULE
11996452_run_8.pdb
 42 44 0 0 0
SMALL
GASTEIGER

@<TRIPOS>ATOM
      1    O       26.4650    5.0760    3.6170 O.3     2  LIG2       -0.3886
      2    C       28.5060    1.1570    4.1800 C.3     2  LIG2       -0.0289
      3    C       29.6570    0.6730    5.0530 C.3     2  LIG2       -0.0284
      4    C       29.6240    2.1180    4.6160 C.3     2  LIG2       -0.0319
      5    C       27.0680    1.4050    4.7210 C.3     2  LIG2       -0.0294
      6    C       26.4040    2.7460    4.2590 C.3     2  LIG2       -0.0090
      7    C       29.2190    3.3000    5.5170 C.3     2  LIG2       -0.0468
      8    C       26.0530    0.3050    4.3260 C.3     2  LIG2       -0.0404
      9    C       27.3050    3.9420    3.7720 C.3     2  LIG2        0.0664
     10    C       25.2430    2.3420    3.3160 C.3     2  LIG2       -0.0471
     11    C       28.4000    4.3930    4.7960 C.3     2  LIG2       -0.0237
     12    C       29.4550    0.2850    6.5370 C.3     2  LIG2       -0.0593
     13    C       30.6920   -0.2390    4.3680 C.3     2  LIG2       -0.0593
     14    C       25.3840    0.8420    3.0590 C.3     2  LIG2       -0.0498
     15    C       26.6120   -1.1260    4.1890 C.3     2  LIG2       -0.0621
     16    C       27.9170    3.7690    2.3540 C.3     2  LIG2       -0.0358
     17    H       28.5010    0.8550    3.1320 H       2  LIG2        0.0312
     18    H       30.3800    2.4150    3.8870 H       2  LIG2        0.0309
     19    H       27.1020    1.4170    5.8090 H       2  LIG2        0.0310
     20    H       25.9130    3.1270    5.1590 H       2  LIG2        0.0331
     21    H       28.6490    2.9650    6.3810 H       2  LIG2        0.0269
     22    H       30.1210    3.7490    5.9350 H       2  LIG2        0.0269
     23    H       25.2890    0.2610    5.1050 H       2  LIG2        0.0301
     24    H       24.2860    2.5400    3.8030 H       2  LIG2        0.0269
     25    H       25.2210    2.8970    2.3790 H       2  LIG2        0.0269
     26    H       27.9380    4.9890    5.5870 H       2  LIG2        0.0293
     27    H       29.0990    5.0700    4.3010 H       2  LIG2        0.0293
     28    H       30.4010    0.3380    7.0770 H       2  LIG2        0.0235
     29    H       29.0870   -0.7370    6.6200 H       2  LIG2        0.0235
     30    H       28.7550    0.9160    7.0790 H       2  LIG2        0.0235
     31    H       31.6590   -0.1790    4.8670 H       2  LIG2        0.0235
     32    H       30.8490    0.0310    3.3220 H       2  LIG2        0.0235
     33    H       30.3680   -1.2800    4.3870 H       2  LIG2        0.0235
     34    H       26.0130    0.6610    2.1860 H       2  LIG2        0.0268
     35    H       24.4180    0.3720    2.8740 H       2  LIG2        0.0268
     36    H       27.3310   -1.2120    3.3740 H       2  LIG2        0.0233
     37    H       25.8100   -1.8380    3.9910 H       2  LIG2        0.0233
     38    H       27.1090   -1.4420    5.1080 H       2  LIG2        0.0233
     39    H       28.6350    2.9570    2.2850 H       2  LIG2        0.0257
     40    H       28.4510    4.6680    2.0380 H       2  LIG2        0.0257
     41    H       27.1620    3.5810    1.5920 H       2  LIG2        0.0257
     42    H       26.0580    5.2700    4.4640 H       2  LIG2        0.2102
@<TRIPOS>BOND
     1    41    16    1
     2    40    16    1
     3    34    14    1
     4    39    16    1
     5    16     9    1
     6    25    10    1
     7    35    14    1
     8    14    10    1
     9    14     8    1
    10    17     2    1
    11    10    24    1
    12    10     6    1
    13    32    13    1
    14    36    15    1
    15     1     9    1
    16     1    42    1
    17     9     6    1
    18     9    11    1
    19    18     4    1
    20    37    15    1
    21     2     4    1
    22     2     5    1
    23     2     3    1
    24    15     8    1
    25    15    38    1
    26     6     5    1
    27     6    20    1
    28    27    11    1
    29     8     5    1
    30     8    23    1
    31    13    33    1
    32    13    31    1
    33    13     3    1
    34     4     3    1
    35     4     7    1
    36     5    19    1
    37    11     7    1
    38    11    26    1
    39     3    12    1
    40     7    22    1
    41     7    21    1
    42    12    29    1
    43    12    28    1
    44    12    30    1
@<TRIPOS>MOLECULE
11996452_run_9.pdb
 42 44 0 0 0
SMALL
GASTEIGER

@<TRIPOS>ATOM
      1    O       27.0820    4.7720    4.1030 O.3     2  LIG2       -0.3886
      2    C       28.0430    0.4290    4.3350 C.3     2  LIG2       -0.0289
      3    C       28.0270   -0.7190    3.3340 C.3     2  LIG2       -0.0284
      4    C       27.0720    0.4350    3.1430 C.3     2  LIG2       -0.0319
      5    C       29.1630    1.5090    4.3790 C.3     2  LIG2       -0.0294
      6    C       28.6600    2.9860    4.5070 C.3     2  LIG2       -0.0090
      7    C       27.2470    1.5590    2.1030 C.3     2  LIG2       -0.0468
      8    C       30.1610    1.3280    5.5490 C.3     2  LIG2       -0.0404
      9    C       27.1930    3.3570    4.0740 C.3     2  LIG2        0.0664
     10    C       29.0930    3.4610    5.9180 C.3     2  LIG2       -0.0471
     11    C       26.8250    2.9570    2.6060 C.3     2  LIG2       -0.0237
     12    C       29.1900   -0.9620    2.3440 C.3     2  LIG2       -0.0593
     13    C       27.4250   -2.0460    3.8320 C.3     2  LIG2       -0.0593
     14    C       29.6130    2.2290    6.6580 C.3     2  LIG2       -0.0498
     15    C       30.4410   -0.1230    5.9930 C.3     2  LIG2       -0.0621
     16    C       26.0810    2.9040    5.0620 C.3     2  LIG2       -0.0358
     17    H       27.6090    0.2510    5.3190 H       2  LIG2        0.0312
     18    H       26.0180    0.2180    3.3200 H       2  LIG2        0.0309
     19    H       29.7480    1.4430    3.4630 H       2  LIG2        0.0310
     20    H       29.2960    3.5480    3.8170 H       2  LIG2        0.0331
     21    H       28.2760    1.6210    1.7540 H       2  LIG2        0.0269
     22    H       26.6650    1.3100    1.2150 H       2  LIG2        0.0269
     23    H       31.1210    1.7420    5.2360 H       2  LIG2        0.0301
     24    H       29.8920    4.1980    5.8300 H       2  LIG2        0.0269
     25    H       28.2990    3.9480    6.4830 H       2  LIG2        0.0269
     26    H       27.2720    3.6710    1.9090 H       2  LIG2        0.0293
     27    H       25.7470    3.0570    2.4640 H       2  LIG2        0.0293
     28    H       28.8490   -1.5500    1.4900 H       2  LIG2        0.0235
     29    H       29.9940   -1.5180    2.8250 H       2  LIG2        0.0235
     30    H       29.6340   -0.0580    1.9360 H       2  LIG2        0.0235
     31    H       27.0430   -2.6400    3.0020 H       2  LIG2        0.0235
     32    H       26.5970   -1.8870    4.5250 H       2  LIG2        0.0235
     33    H       28.1730   -2.6420    4.3550 H       2  LIG2        0.0235
     34    H       28.8010    1.7320    7.1920 H       2  LIG2        0.0268
     35    H       30.3780    2.4920    7.3890 H       2  LIG2        0.0268
     36    H       29.5550   -0.6070    6.4050 H       2  LIG2        0.0233
     37    H       31.2140   -0.1500    6.7620 H       2  LIG2        0.0233
     38    H       30.7930   -0.7270    5.1550 H       2  LIG2        0.0233
     39    H       25.9830    1.8250    5.1430 H       2  LIG2        0.0257
     40    H       25.1000    3.2710    4.7530 H       2  LIG2        0.0257
     41    H       26.2410    3.2780    6.0720 H       2  LIG2        0.0257
     42    H       27.7810    5.1420    3.5590 H       2  LIG2        0.2102
@<TRIPOS>BOND
     1    22     7    1
     2    28    12    1
     3    21     7    1
     4    26    11    1
     5    30    12    1
     6     7    11    1
     7     7     4    1
     8    12    29    1
     9    12     3    1
    10    27    11    1
    11    11     9    1
    12    31    13    1
    13     4    18    1
    14     4     3    1
    15     4     2    1
    16     3    13    1
    17     3     2    1
    18    19     5    1
    19    42     1    1
    20    20     6    1
    21    13    33    1
    22    13    32    1
    23     9     1    1
    24     9     6    1
    25     9    16    1
    26     2     5    1
    27     2    17    1
    28     5     6    1
    29     5     8    1
    30     6    10    1
    31    40    16    1
    32    16    39    1
    33    16    41    1
    34    38    15    1
    35    23     8    1
    36     8    15    1
    37     8    14    1
    38    24    10    1
    39    10    25    1
    40    10    14    1
    41    15    36    1
    42    15    37    1
    43    14    34    1
    44    14    35    1
