@<TRIPOS>MOLECULE
11996452_4_run_22.pdb
 42 44 0 0 0
SMALL
GASTEIGER

@<TRIPOS>ATOM
      1    O       28.1890   -1.3760    4.2080 O.3     2  LIG2       -0.3886
      2    C       28.7450    2.6550    4.3410 C.3     2  LIG2       -0.0289
      3    C       27.4600    3.3710    3.9710 C.3     2  LIG2       -0.0284
      4    C       28.1400    2.4950    2.9410 C.3     2  LIG2       -0.0319
      5    C       28.7980    1.4040    5.2540 C.3     2  LIG2       -0.0294
      6    C       29.8220    0.3670    4.7140 C.3     2  LIG2       -0.0090
      7    C       27.6170    1.1090    2.4970 C.3     2  LIG2       -0.0468
      8    C       29.1450    1.6540    6.7510 C.3     2  LIG2       -0.0404
      9    C       29.2650   -0.6380    3.6470 C.3     2  LIG2        0.0664
     10    C       30.4210   -0.2700    5.9820 C.3     2  LIG2       -0.0471
     11    C       28.7270    0.0430    2.3520 C.3     2  LIG2       -0.0237
     12    C       26.1070    2.9700    4.6020 C.3     2  LIG2       -0.0593
     13    C       27.5600    4.8940    3.7680 C.3     2  LIG2       -0.0593
     14    C       30.4220    0.8460    7.0220 C.3     2  LIG2       -0.0498
     15    C       29.2710    3.1280    7.1900 C.3     2  LIG2       -0.0621
     16    C       30.3300   -1.6840    3.2410 C.3     2  LIG2       -0.0358
     17    H       29.6650    3.2400    4.3960 H       2  LIG2        0.0312
     18    H       28.6040    3.0220    2.1050 H       2  LIG2        0.0309
     19    H       27.8220    0.9230    5.2660 H       2  LIG2        0.0310
     20    H       30.6420    0.9100    4.2380 H       2  LIG2        0.0331
     21    H       26.8280    0.7290    3.1430 H       2  LIG2        0.0269
     22    H       27.1460    1.2370    1.5220 H       2  LIG2        0.0269
     23    H       28.3520    1.2140    7.3590 H       2  LIG2        0.0301
     24    H       29.8120   -1.1070    6.3270 H       2  LIG2        0.0269
     25    H       31.4310   -0.6480    5.8120 H       2  LIG2        0.0269
     26    H       28.3670   -0.7300    1.6700 H       2  LIG2        0.0293
     27    H       29.5650    0.5050    1.8260 H       2  LIG2        0.0293
     28    H       25.2780    3.2880    3.9680 H       2  LIG2        0.0235
     29    H       25.9800    3.4500    5.5730 H       2  LIG2        0.0235
     30    H       25.9810    1.9030    4.7650 H       2  LIG2        0.0235
     31    H       26.7770    5.2550    3.1010 H       2  LIG2        0.0235
     32    H       28.5170    5.1880    3.3320 H       2  LIG2        0.0235
     33    H       27.4630    5.4210    4.7170 H       2  LIG2        0.0235
     34    H       31.3110    1.4700    6.9020 H       2  LIG2        0.0268
     35    H       30.4440    0.4430    8.0350 H       2  LIG2        0.0268
     36    H       30.0850    3.6390    6.6760 H       2  LIG2        0.0233
     37    H       29.4660    3.2000    8.2600 H       2  LIG2        0.0233
     38    H       28.3490    3.6780    6.9900 H       2  LIG2        0.0233
     39    H       31.2100   -1.2030    2.8120 H       2  LIG2        0.0257
     40    H       29.9480   -2.3850    2.4980 H       2  LIG2        0.0257
     41    H       30.6660   -2.2790    4.0910 H       2  LIG2        0.0257
     42    H       28.5310   -1.9120    4.9270 H       2  LIG2        0.2102
@<TRIPOS>BOND
     1    22     7    1
     2    26    11    1
     3    27    11    1
     4    18     4    1
     5    11     7    1
     6    11     9    1
     7     7     4    1
     8     7    21    1
     9    40    16    1
    10    39    16    1
    11     4     3    1
    12     4     2    1
    13    31    13    1
    14    16     9    1
    15    16    41    1
    16    32    13    1
    17     9     1    1
    18     9     6    1
    19    13     3    1
    20    13    33    1
    21    28    12    1
    22     3     2    1
    23     3    12    1
    24     1    42    1
    25    20     6    1
    26     2    17    1
    27     2     5    1
    28    12    30    1
    29    12    29    1
    30     6     5    1
    31     6    10    1
    32     5    19    1
    33     5     8    1
    34    25    10    1
    35    10    24    1
    36    10    14    1
    37    36    15    1
    38     8    14    1
    39     8    15    1
    40     8    23    1
    41    34    14    1
    42    38    15    1
    43    14    35    1
    44    15    37    1
@<TRIPOS>MOLECULE
11996452_4_run_15.pdb
 42 44 0 0 0
SMALL
GASTEIGER

@<TRIPOS>ATOM
      1    O       31.0990    1.5710    4.8550 O.3     2  LIG2       -0.3886
      2    C       27.1350    2.3830    4.4010 C.3     2  LIG2       -0.0289
      3    C       26.9220    3.8800    4.2720 C.3     2  LIG2       -0.0284
      4    C       27.4900    3.3230    5.5600 C.3     2  LIG2       -0.0319
      5    C       28.2930    1.6190    3.7080 C.3     2  LIG2       -0.0294
      6    C       28.8930    0.5440    4.6580 C.3     2  LIG2       -0.0090
      7    C       28.9680    3.4680    5.9910 C.3     2  LIG2       -0.0468
      8    C       27.9470    0.9050    2.3680 C.3     2  LIG2       -0.0404
      9    C       30.0220    1.0510    5.6200 C.3     2  LIG2        0.0664
     10    C       29.2850   -0.6130    3.7200 C.3     2  LIG2       -0.0471
     11    C       29.5670    2.1780    6.5970 C.3     2  LIG2       -0.0237
     12    C       27.7830    4.7350    3.3140 C.3     2  LIG2       -0.0593
     13    C       25.4610    4.3660    4.3060 C.3     2  LIG2       -0.0593
     14    C       28.2490   -0.5820    2.6010 C.3     2  LIG2       -0.0498
     15    C       26.5290    1.1430    1.8100 C.3     2  LIG2       -0.0621
     16    C       30.6170   -0.1070    6.4570 C.3     2  LIG2       -0.0358
     17    H       26.2620    1.7480    4.5550 H       2  LIG2        0.0312
     18    H       26.8260    3.3630    6.4250 H       2  LIG2        0.0309
     19    H       29.0900    2.3170    3.4600 H       2  LIG2        0.0310
     20    H       28.0900    0.1570    5.2890 H       2  LIG2        0.0331
     21    H       29.6090    3.8260    5.1880 H       2  LIG2        0.0269
     22    H       29.0080    4.2460    6.7540 H       2  LIG2        0.0269
     23    H       28.6450    1.2600    1.6080 H       2  LIG2        0.0301
     24    H       30.2860   -0.4680    3.3130 H       2  LIG2        0.0269
     25    H       29.2770   -1.5760    4.2340 H       2  LIG2        0.0269
     26    H       30.4130    2.4610    7.2270 H       2  LIG2        0.0293
     27    H       28.8330    1.7640    7.2910 H       2  LIG2        0.0293
     28    H       27.7750    5.7810    3.6220 H       2  LIG2        0.0235
     29    H       27.3870    4.6890    2.2990 H       2  LIG2        0.0235
     30    H       28.8260    4.4360    3.2540 H       2  LIG2        0.0235
     31    H       25.3980    5.3970    4.6530 H       2  LIG2        0.0235
     32    H       24.8420    3.7610    4.9710 H       2  LIG2        0.0235
     33    H       25.0100    4.3170    3.3140 H       2  LIG2        0.0235
     34    H       27.3490   -1.1190    2.9060 H       2  LIG2        0.0268
     35    H       28.6260   -1.0680    1.6990 H       2  LIG2        0.0268
     36    H       25.7570    0.7620    2.4800 H       2  LIG2        0.0233
     37    H       26.4000    0.6440    0.8500 H       2  LIG2        0.0233
     38    H       26.3410    2.2070    1.6520 H       2  LIG2        0.0233
     39    H       29.8510   -0.5840    7.0700 H       2  LIG2        0.0257
     40    H       31.4020    0.2400    7.1300 H       2  LIG2        0.0257
     41    H       31.0600   -0.8810    5.8290 H       2  LIG2        0.0257
     42    H       31.5560    0.8380    4.4370 H       2  LIG2        0.2102
@<TRIPOS>BOND
     1    37    15    1
     2    23     8    1
     3    38    15    1
     4    35    14    1
     5    15     8    1
     6    15    36    1
     7    29    12    1
     8     8    14    1
     9     8     5    1
    10    14    34    1
    11    14    10    1
    12    30    12    1
    13    24    10    1
    14    12    28    1
    15    12     3    1
    16    33    13    1
    17    19     5    1
    18     5     2    1
    19     5     6    1
    20    10    25    1
    21    10     6    1
    22     3    13    1
    23     3     2    1
    24     3     4    1
    25    13    31    1
    26    13    32    1
    27     2    17    1
    28     2     4    1
    29    42     1    1
    30     6    20    1
    31     6     9    1
    32     1     9    1
    33    21     7    1
    34     4     7    1
    35     4    18    1
    36     9    16    1
    37     9    11    1
    38    41    16    1
    39     7    11    1
    40     7    22    1
    41    16    39    1
    42    16    40    1
    43    11    26    1
    44    11    27    1
@<TRIPOS>MOLECULE
11996452_4_run_24.pdb
 42 44 0 0 0
SMALL
GASTEIGER

@<TRIPOS>ATOM
      1    O       25.3490    6.3020    5.0590 O.3     2  LIG2       -0.3886
      2    C       26.9800    3.0150    3.2940 C.3     2  LIG2       -0.0289
      3    C       28.3590    2.7460    3.8670 C.3     2  LIG2       -0.0284
      4    C       28.1120    4.0330    3.1090 C.3     2  LIG2       -0.0319
      5    C       25.7610    3.4380    4.1540 C.3     2  LIG2       -0.0294
      6    C       24.9270    4.5320    3.4310 C.3     2  LIG2       -0.0090
      7    C       27.9960    5.4240    3.7730 C.3     2  LIG2       -0.0468
      8    C       24.7750    2.3040    4.5610 C.3     2  LIG2       -0.0404
      9    C       25.3990    6.0080    3.6710 C.3     2  LIG2        0.0664
     10    C       23.4710    4.2250    3.8300 C.3     2  LIG2       -0.0471
     11    C       26.8560    6.2950    3.1950 C.3     2  LIG2       -0.0237
     12    C       28.6080    2.7450    5.3930 C.3     2  LIG2       -0.0593
     13    C       29.1940    1.6650    3.1570 C.3     2  LIG2       -0.0593
     14    C       23.4140    2.7070    3.9750 C.3     2  LIG2       -0.0498
     15    C       25.1850    0.8670    4.1760 C.3     2  LIG2       -0.0621
     16    C       24.4550    7.0250    2.9880 C.3     2  LIG2       -0.0358
     17    H       26.6780    2.4720    2.3970 H       2  LIG2        0.0312
     18    H       28.5970    4.1060    2.1340 H       2  LIG2        0.0309
     19    H       26.1100    3.8610    5.0940 H       2  LIG2        0.0310
     20    H       24.9840    4.3530    2.3550 H       2  LIG2        0.0331
     21    H       27.9000    5.3690    4.8550 H       2  LIG2        0.0269
     22    H       28.9370    5.9470    3.5990 H       2  LIG2        0.0269
     23    H       24.6730    2.3190    5.6480 H       2  LIG2        0.0301
     24    H       23.2130    4.7040    4.7750 H       2  LIG2        0.0269
     25    H       22.7590    4.5730    3.0800 H       2  LIG2        0.0269
     26    H       27.0940    7.3410    3.3960 H       2  LIG2        0.0293
     27    H       26.8910    6.2090    2.1070 H       2  LIG2        0.0293
     28    H       29.6620    2.9270    5.6100 H       2  LIG2        0.0235
     29    H       28.3470    1.7780    5.8240 H       2  LIG2        0.0235
     30    H       28.0440    3.4930    5.9440 H       2  LIG2        0.0235
     31    H       30.2610    1.8310    3.3070 H       2  LIG2        0.0235
     32    H       29.0160    1.6510    2.0800 H       2  LIG2        0.0235
     33    H       28.9520    0.6730    3.5370 H       2  LIG2        0.0235
     34    H       23.2570    2.2430    2.9990 H       2  LIG2        0.0268
     35    H       22.5860    2.4020    4.6160 H       2  LIG2        0.0268
     36    H       25.2520    0.7370    3.0960 H       2  LIG2        0.0233
     37    H       24.4580    0.1430    4.5460 H       2  LIG2        0.0233
     38    H       26.1530    0.6050    4.6080 H       2  LIG2        0.0233
     39    H       24.4160    6.8630    1.9100 H       2  LIG2        0.0257
     40    H       24.7800    8.0540    3.1510 H       2  LIG2        0.0257
     41    H       23.4340    6.9550    3.3650 H       2  LIG2        0.0257
     42    H       25.7970    7.1370    5.2090 H       2  LIG2        0.2102
@<TRIPOS>BOND
     1    39    16    1
     2    32    13    1
     3    27    11    1
     4    18     4    1
     5    20     6    1
     6    17     2    1
     7    16    40    1
     8    16    41    1
     9    16     9    1
    10    34    14    1
    11    25    10    1
    12    36    15    1
    13     4     2    1
    14     4     7    1
    15     4     3    1
    16    13    31    1
    17    13    33    1
    18    13     3    1
    19    11    26    1
    20    11     9    1
    21    11     7    1
    22     2     3    1
    23     2     5    1
    24     6     9    1
    25     6    10    1
    26     6     5    1
    27    22     7    1
    28     9     1    1
    29     7    21    1
    30    10    14    1
    31    10    24    1
    32     3    12    1
    33    14     8    1
    34    14    35    1
    35     5     8    1
    36     5    19    1
    37    15    37    1
    38    15     8    1
    39    15    38    1
    40     8    23    1
    41     1    42    1
    42    12    28    1
    43    12    29    1
    44    12    30    1
@<TRIPOS>MOLECULE
11996452_4_run_23.pdb
 42 44 0 0 0
SMALL
GASTEIGER

@<TRIPOS>ATOM
      1    O       26.1660    4.2530    5.2180 O.3     2  LIG2       -0.3886
      2    C       28.6010    1.1880    4.0990 C.3     2  LIG2       -0.0289
      3    C       29.5950    0.8830    5.2040 C.3     2  LIG2       -0.0284
      4    C       29.6360    2.2360    4.5260 C.3     2  LIG2       -0.0319
      5    C       27.1040    1.5030    4.3560 C.3     2  LIG2       -0.0294
      6    C       26.6140    2.6520    3.4310 C.3     2  LIG2       -0.0090
      7    C       29.1550    3.5510    5.1820 C.3     2  LIG2       -0.0468
      8    C       26.1080    0.3180    4.1810 C.3     2  LIG2       -0.0404
      9    C       26.8440    4.1030    3.9800 C.3     2  LIG2        0.0664
     10    C       25.1540    2.2840    3.1090 C.3     2  LIG2       -0.0471
     11    C       28.3410    4.4580    4.2310 C.3     2  LIG2       -0.0237
     12    C       29.1420    0.7310    6.6740 C.3     2  LIG2       -0.0593
     13    C       30.7210   -0.1080    4.8540 C.3     2  LIG2       -0.0593
     14    C       25.1280    0.7590    3.0850 C.3     2  LIG2       -0.0498
     15    C       26.7300   -1.0660    3.9010 C.3     2  LIG2       -0.0621
     16    C       26.2430    5.1700    3.0340 C.3     2  LIG2       -0.0358
     17    H       28.7610    0.7350    3.1200 H       2  LIG2        0.0312
     18    H       30.4980    2.4150    3.8810 H       2  LIG2        0.0309
     19    H       26.9740    1.8330    5.3840 H       2  LIG2        0.0310
     20    H       27.1540    2.5840    2.4830 H       2  LIG2        0.0331
     21    H       28.5920    3.3850    6.0980 H       2  LIG2        0.0269
     22    H       30.0440    4.1030    5.4920 H       2  LIG2        0.0269
     23    H       25.5350    0.2220    5.1050 H       2  LIG2        0.0301
     24    H       24.4750    2.6610    3.8750 H       2  LIG2        0.0269
     25    H       24.8290    2.6960    2.1520 H       2  LIG2        0.0269
     26    H       28.4030    5.4820    4.6050 H       2  LIG2        0.0293
     27    H       28.8600    4.4840    3.2710 H       2  LIG2        0.0293
     28    H       29.9770    0.9060    7.3530 H       2  LIG2        0.0235
     29    H       28.7740   -0.2780    6.8590 H       2  LIG2        0.0235
     30    H       28.3490    1.4100    6.9760 H       2  LIG2        0.0235
     31    H       31.5990    0.0590    5.4780 H       2  LIG2        0.0235
     32    H       31.0410   -0.0150    3.8140 H       2  LIG2        0.0235
     33    H       30.3950   -1.1370    5.0000 H       2  LIG2        0.0235
     34    H       25.4470    0.3930    2.1070 H       2  LIG2        0.0268
     35    H       24.1210    0.3770    3.2600 H       2  LIG2        0.0268
     36    H       27.2780   -1.0840    2.9580 H       2  LIG2        0.0233
     37    H       25.9590   -1.8340    3.8450 H       2  LIG2        0.0233
     38    H       27.4200   -1.3550    4.6960 H       2  LIG2        0.0233
     39    H       26.6950    5.1180    2.0430 H       2  LIG2        0.0257
     40    H       26.4010    6.1810    3.4120 H       2  LIG2        0.0257
     41    H       25.1670    5.0460    2.9080 H       2  LIG2        0.0257
     42    H       26.2520    5.1670    5.5020 H       2  LIG2        0.2102
@<TRIPOS>BOND
     1    39    16    1
     2    34    14    1
     3    25    10    1
     4    20     6    1
     5    41    16    1
     6    36    15    1
     7    16    40    1
     8    16     9    1
     9    14    10    1
    10    14    35    1
    11    14     8    1
    12    10     6    1
    13    10    24    1
    14    17     2    1
    15    27    11    1
    16     6     9    1
    17     6     5    1
    18    32    13    1
    19    37    15    1
    20    18     4    1
    21    15     8    1
    22    15    38    1
    23     9    11    1
    24     9     1    1
    25     2     5    1
    26     2     4    1
    27     2     3    1
    28     8     5    1
    29     8    23    1
    30    11    26    1
    31    11     7    1
    32     5    19    1
    33     4     7    1
    34     4     3    1
    35    13    33    1
    36    13     3    1
    37    13    31    1
    38     7    22    1
    39     7    21    1
    40     3    12    1
    41     1    42    1
    42    12    29    1
    43    12    30    1
    44    12    28    1
@<TRIPOS>MOLECULE
11996452_4_run_3.pdb
 42 44 0 0 0
SMALL
GASTEIGER

@<TRIPOS>ATOM
      1    O       28.3490    4.0770    2.6210 O.3     2  LIG2       -0.3886
      2    C       27.9770    0.3850    4.2960 C.3     2  LIG2       -0.0289
      3    C       28.0960   -0.6860    3.2280 C.3     2  LIG2       -0.0284
      4    C       26.9440    0.2940    3.1660 C.3     2  LIG2       -0.0319
      5    C       28.8790    1.6450    4.3510 C.3     2  LIG2       -0.0294
      6    C       28.0500    2.9020    4.7390 C.3     2  LIG2       -0.0090
      7    C       26.8380    1.4470    2.1420 C.3     2  LIG2       -0.0468
      8    C       30.0960    1.5830    5.3200 C.3     2  LIG2       -0.0404
      9    C       27.3610    3.6490    3.5460 C.3     2  LIG2        0.0664
     10    C       29.0190    3.7480    5.5860 C.3     2  LIG2       -0.0471
     11    C       26.3390    2.7770    2.7540 C.3     2  LIG2       -0.0237
     12    C       29.2360   -0.6560    2.1840 C.3     2  LIG2       -0.0593
     13    C       27.7670   -2.1260    3.6650 C.3     2  LIG2       -0.0593
     14    C       29.8950    2.7340    6.3150 C.3     2  LIG2       -0.0498
     15    C       30.3480    0.2300    6.0190 C.3     2  LIG2       -0.0621
     16    C       26.6390    4.9330    4.0200 C.3     2  LIG2       -0.0358
     17    H       27.6250    0.0910    5.2860 H       2  LIG2        0.0312
     18    H       25.9590   -0.1220    3.3880 H       2  LIG2        0.0309
     19    H       29.3070    1.8280    3.3690 H       2  LIG2        0.0310
     20    H       27.2530    2.5920    5.4200 H       2  LIG2        0.0331
     21    H       27.7670    1.6190    1.6020 H       2  LIG2        0.0269
     22    H       26.1210    1.1400    1.3800 H       2  LIG2        0.0269
     23    H       30.9960    1.8090    4.7450 H       2  LIG2        0.0301
     24    H       29.6320    4.3930    4.9550 H       2  LIG2        0.0269
     25    H       28.4900    4.3890    6.2940 H       2  LIG2        0.0269
     26    H       25.9090    3.3790    1.9500 H       2  LIG2        0.0293
     27    H       25.4960    2.5460    3.4070 H       2  LIG2        0.0293
     28    H       28.9610   -1.2300    1.2980 H       2  LIG2        0.0235
     29    H       30.1430   -1.1010    2.5940 H       2  LIG2        0.0235
     30    H       29.5070    0.3380    1.8380 H       2  LIG2        0.0235
     31    H       27.4410   -2.7290    2.8170 H       2  LIG2        0.0235
     32    H       26.9710   -2.1560    4.4100 H       2  LIG2        0.0235
     33    H       28.6400   -2.6080    4.1050 H       2  LIG2        0.0235
     34    H       29.3920    2.3840    7.2190 H       2  LIG2        0.0268
     35    H       30.8430    3.1790    6.6230 H       2  LIG2        0.0268
     36    H       29.5210   -0.0530    6.6710 H       2  LIG2        0.0233
     37    H       31.2470    0.2720    6.6340 H       2  LIG2        0.0233
     38    H       30.4910   -0.5690    5.2900 H       2  LIG2        0.0233
     39    H       25.8660    4.7020    4.7540 H       2  LIG2        0.0257
     40    H       26.1570    5.4560    3.1930 H       2  LIG2        0.0257
     41    H       27.3260    5.6420    4.4820 H       2  LIG2        0.0257
     42    H       28.9960    4.6070    3.0920 H       2  LIG2        0.2102
@<TRIPOS>BOND
     1    28    12    1
     2    22     7    1
     3    21     7    1
     4    30    12    1
     5    26    11    1
     6     7    11    1
     7     7     4    1
     8    12    29    1
     9    12     3    1
    10     1    42    1
    11     1     9    1
    12    11    27    1
    13    11     9    1
    14    31    13    1
    15     4     3    1
    16     4    18    1
    17     4     2    1
    18    40    16    1
    19     3    13    1
    20     3     2    1
    21    19     5    1
    22     9    16    1
    23     9     6    1
    24    13    33    1
    25    13    32    1
    26    16    41    1
    27    16    39    1
    28     2     5    1
    29     2    17    1
    30     5     6    1
    31     5     8    1
    32     6    20    1
    33     6    10    1
    34    23     8    1
    35    24    10    1
    36    38    15    1
    37     8    15    1
    38     8    14    1
    39    10    25    1
    40    10    14    1
    41    15    37    1
    42    15    36    1
    43    14    35    1
    44    14    34    1
@<TRIPOS>MOLECULE
11996452_4_run_15.pdb
 42 44 0 0 0
SMALL
GASTEIGER

@<TRIPOS>ATOM
      1    O       23.3520    3.3130    2.7620 O.3     2  LIG2       -0.3886
      2    C       27.1720    3.1210    4.1560 C.3     2  LIG2       -0.0289
      3    C       27.8400    1.8470    3.6740 C.3     2  LIG2       -0.0284
      4    C       26.6390    1.7510    4.5910 C.3     2  LIG2       -0.0319
      5    C       26.2610    4.0030    3.2640 C.3     2  LIG2       -0.0294
      6    C       25.0310    4.5150    4.0650 C.3     2  LIG2       -0.0090
      7    C       25.2300    1.3070    4.1340 C.3     2  LIG2       -0.0468
      8    C       26.9300    5.2460    2.6070 C.3     2  LIG2       -0.0404
      9    C       23.7950    3.5500    4.0900 C.3     2  LIG2        0.0664
     10    C       24.7680    5.9220    3.4970 C.3     2  LIG2       -0.0471
     11    C       24.0860    2.1590    4.7320 C.3     2  LIG2       -0.0237
     12    C       27.7600    1.4090    2.1940 C.3     2  LIG2       -0.0593
     13    C       29.2150    1.5220    4.2870 C.3     2  LIG2       -0.0593
     14    C       26.1450    6.4600    3.1230 C.3     2  LIG2       -0.0498
     15    C       28.4520    5.3930    2.8080 C.3     2  LIG2       -0.0621
     16    C       22.5940    4.1850    4.8310 C.3     2  LIG2       -0.0358
     17    H       27.6710    3.7040    4.9320 H       2  LIG2        0.0312
     18    H       26.8460    1.4050    5.6050 H       2  LIG2        0.0309
     19    H       25.8860    3.4100    2.4330 H       2  LIG2        0.0310
     20    H       25.3350    4.6650    5.1030 H       2  LIG2        0.0331
     21    H       25.1300    1.2700    3.0510 H       2  LIG2        0.0269
     22    H       25.0900    0.2780    4.4660 H       2  LIG2        0.0269
     23    H       26.7610    5.1890    1.5300 H       2  LIG2        0.0301
     24    H       24.1280    5.8760    2.6150 H       2  LIG2        0.0269
     25    H       24.2770    6.5710    4.2240 H       2  LIG2        0.0269
     26    H       23.1730    1.5620    4.7100 H       2  LIG2        0.0293
     27    H       24.2980    2.3010    5.7930 H       2  LIG2        0.0293
     28    H       27.9330    0.3360    2.1010 H       2  LIG2        0.0235
     29    H       28.5230    1.9160    1.6020 H       2  LIG2        0.0235
     30    H       26.8080    1.6120    1.7120 H       2  LIG2        0.0235
     31    H       29.4150    0.4510    4.2590 H       2  LIG2        0.0235
     32    H       29.2840    1.8380    5.3290 H       2  LIG2        0.0235
     33    H       30.0130    2.0270    3.7430 H       2  LIG2        0.0235
     34    H       26.6300    6.8930    4.0010 H       2  LIG2        0.0268
     35    H       26.0710    7.2490    2.3720 H       2  LIG2        0.0268
     36    H       28.7150    5.5190    3.8590 H       2  LIG2        0.0233
     37    H       28.8330    6.2620    2.2720 H       2  LIG2        0.0233
     38    H       28.9850    4.5190    2.4300 H       2  LIG2        0.0233
     39    H       22.8490    4.4210    5.8650 H       2  LIG2        0.0257
     40    H       21.7320    3.5170    4.8530 H       2  LIG2        0.0257
     41    H       22.2630    5.1100    4.3580 H       2  LIG2        0.0257
     42    H       22.5610    2.7690    2.7990 H       2  LIG2        0.2102
@<TRIPOS>BOND
     1    23     8    1
     2    29    12    1
     3    30    12    1
     4    28    12    1
     5    12     3    1
     6    37    15    1
     7    35    14    1
     8    38    15    1
     9    19     5    1
    10     8    15    1
    11     8    14    1
    12     8     5    1
    13    24    10    1
    14     1    42    1
    15     1     9    1
    16    15    36    1
    17    21     7    1
    18    14    10    1
    19    14    34    1
    20     5     6    1
    21     5     2    1
    22    10     6    1
    23    10    25    1
    24     3     2    1
    25     3    13    1
    26     3     4    1
    27    33    13    1
    28     6     9    1
    29     6    20    1
    30     9    11    1
    31     9    16    1
    32     7    22    1
    33     7     4    1
    34     7    11    1
    35     2     4    1
    36     2    17    1
    37    31    13    1
    38    13    32    1
    39    41    16    1
    40     4    18    1
    41    26    11    1
    42    11    27    1
    43    16    40    1
    44    16    39    1
@<TRIPOS>MOLECULE
11996452_4_run_7.pdb
 42 44 0 0 0
SMALL
GASTEIGER

@<TRIPOS>ATOM
      1    O       30.5960    0.7690    2.5510 O.3     2  LIG2       -0.3886
      2    C       28.4340    1.4010    5.9430 C.3     2  LIG2       -0.0289
      3    C       29.3130    2.0200    7.0130 C.3     2  LIG2       -0.0284
      4    C       29.6340    0.6300    6.5070 C.3     2  LIG2       -0.0319
      5    C       28.4780    1.8180    4.4500 C.3     2  LIG2       -0.0294
      6    C       28.3660    0.5740    3.5250 C.3     2  LIG2       -0.0090
      7    C       30.8240    0.2980    5.5770 C.3     2  LIG2       -0.0468
      8    C       27.3950    2.8350    3.9830 C.3     2  LIG2       -0.0404
      9    C       29.7200   -0.1440    3.1940 C.3     2  LIG2        0.0664
     10    C       27.5630    1.0760    2.3100 C.3     2  LIG2       -0.0471
     11    C       30.4700   -0.6950    4.4460 C.3     2  LIG2       -0.0237
     12    C       30.2320    3.2240    6.7020 C.3     2  LIG2       -0.0593
     13    C       28.7010    2.1260    8.4230 C.3     2  LIG2       -0.0593
     14    C       26.6090    2.1240    2.8740 C.3     2  LIG2       -0.0498
     15    C       26.4810    3.4160    5.0820 C.3     2  LIG2       -0.0621
     16    C       29.5160   -1.3100    2.1980 C.3     2  LIG2       -0.0358
     17    H       27.4510    1.0280    6.2340 H       2  LIG2        0.0312
     18    H       29.4510   -0.1830    7.2110 H       2  LIG2        0.0309
     19    H       29.4300    2.2990    4.2360 H       2  LIG2        0.0310
     20    H       27.7290   -0.1640    4.0180 H       2  LIG2        0.0331
     21    H       31.2890    1.1850    5.1520 H       2  LIG2        0.0269
     22    H       31.5990   -0.1600    6.1940 H       2  LIG2        0.0269
     23    H       27.9060    3.6820    3.5220 H       2  LIG2        0.0301
     24    H       28.2190    1.5260    1.5640 H       2  LIG2        0.0269
     25    H       27.0140    0.2700    1.8210 H       2  LIG2        0.0269
     26    H       31.3920   -1.1790    4.1200 H       2  LIG2        0.0293
     27    H       29.8760   -1.5000    4.8830 H       2  LIG2        0.0293
     28    H       31.0450    3.2840    7.4260 H       2  LIG2        0.0235
     29    H       29.6730    4.1580    6.7580 H       2  LIG2        0.0235
     30    H       30.6940    3.1980    5.7180 H       2  LIG2        0.0235
     31    H       29.4770    2.1430    9.1880 H       2  LIG2        0.0235
     32    H       28.0420    1.2860    8.6480 H       2  LIG2        0.0235
     33    H       28.1090    3.0360    8.5230 H       2  LIG2        0.0235
     34    H       25.7170    1.6400    3.2780 H       2  LIG2        0.0268
     35    H       26.2780    2.8170    2.0990 H       2  LIG2        0.0268
     36    H       25.8800    2.6450    5.5630 H       2  LIG2        0.0233
     37    H       25.7930    4.1520    4.6660 H       2  LIG2        0.0233
     38    H       27.0650    3.9190    5.8550 H       2  LIG2        0.0233
     39    H       28.8360   -2.0600    2.6030 H       2  LIG2        0.0257
     40    H       30.4560   -1.8140    1.9650 H       2  LIG2        0.0257
     41    H       29.0990   -0.9700    1.2490 H       2  LIG2        0.0257
     42    H       31.4920    0.4310    2.6220 H       2  LIG2        0.2102
@<TRIPOS>BOND
     1    41    16    1
     2    24    10    1
     3    25    10    1
     4    40    16    1
     5    35    14    1
     6    16    39    1
     7    16     9    1
     8    10    14    1
     9    10     6    1
    10     1    42    1
    11     1     9    1
    12    14    34    1
    13    14     8    1
    14     9     6    1
    15     9    11    1
    16    23     8    1
    17     6    20    1
    18     6     5    1
    19     8     5    1
    20     8    15    1
    21    26    11    1
    22    19     5    1
    23    11    27    1
    24    11     7    1
    25     5     2    1
    26    37    15    1
    27    15    36    1
    28    15    38    1
    29    21     7    1
    30     7    22    1
    31     7     4    1
    32    30    12    1
    33     2    17    1
    34     2     4    1
    35     2     3    1
    36     4     3    1
    37     4    18    1
    38    12    29    1
    39    12     3    1
    40    12    28    1
    41     3    13    1
    42    13    33    1
    43    13    32    1
    44    13    31    1
@<TRIPOS>MOLECULE
11996452_4_run_12.pdb
 42 44 0 0 0
SMALL
GASTEIGER

@<TRIPOS>ATOM
      1    O       28.3490    1.3890    6.5600 O.3     2  LIG2       -0.3886
      2    C       26.8940    1.9080    2.7940 C.3     2  LIG2       -0.0289
      3    C       25.6160    1.1090    2.6140 C.3     2  LIG2       -0.0284
      4    C       26.9140    0.3770    2.8850 C.3     2  LIG2       -0.0319
      5    C       27.2270    2.7140    4.0750 C.3     2  LIG2       -0.0294
      6    C       28.7280    2.5590    4.4510 C.3     2  LIG2       -0.0090
      7    C       27.2660   -0.2950    4.2320 C.3     2  LIG2       -0.0468
      8    C       26.9220    4.2410    4.0310 C.3     2  LIG2       -0.0404
      9    C       29.0740    1.3160    5.3410 C.3     2  LIG2        0.0664
     10    C       29.1150    3.9290    5.0390 C.3     2  LIG2       -0.0471
     11    C       28.7250   -0.0540    4.6830 C.3     2  LIG2       -0.0237
     12    C       24.4840    1.1570    3.6640 C.3     2  LIG2       -0.0593
     13    C       25.0560    1.0300    1.1810 C.3     2  LIG2       -0.0593
     14    C       28.2660    4.9400    4.2750 C.3     2  LIG2       -0.0498
     15    C       26.2010    4.7610    2.7700 C.3     2  LIG2       -0.0621
     16    C       30.5690    1.2990    5.7370 C.3     2  LIG2       -0.0358
     17    H       27.3640    2.3370    1.9070 H       2  LIG2        0.0312
     18    H       27.3180   -0.1930    2.0470 H       2  LIG2        0.0309
     19    H       26.6410    2.3310    4.9070 H       2  LIG2        0.0310
     20    H       29.3040    2.4570    3.5290 H       2  LIG2        0.0331
     21    H       26.5850   -0.0170    5.0340 H       2  LIG2        0.0269
     22    H       27.1280   -1.3700    4.1040 H       2  LIG2        0.0269
     23    H       26.2770    4.4790    4.8800 H       2  LIG2        0.0301
     24    H       28.8910    3.9770    6.1050 H       2  LIG2        0.0269
     25    H       30.1790    4.1400    4.9180 H       2  LIG2        0.0269
     26    H       29.0040   -0.8570    5.3690 H       2  LIG2        0.0293
     27    H       29.3700   -0.1990    3.8140 H       2  LIG2        0.0293
     28    H       23.8530    0.2710    3.5900 H       2  LIG2        0.0235
     29    H       23.8470    2.0280    3.5010 H       2  LIG2        0.0235
     30    H       24.8240    1.2110    4.6950 H       2  LIG2        0.0235
     31    H       24.4540    0.1320    1.0440 H       2  LIG2        0.0235
     32    H       25.8490    1.0060    0.4310 H       2  LIG2        0.0235
     33    H       24.4290    1.8930    0.9600 H       2  LIG2        0.0235
     34    H       28.7490    5.1970    3.3290 H       2  LIG2        0.0268
     35    H       28.1490    5.8660    4.8400 H       2  LIG2        0.0268
     36    H       26.8000    4.6200    1.8700 H       2  LIG2        0.0233
     37    H       25.9880    5.8260    2.8560 H       2  LIG2        0.0233
     38    H       25.2480    4.2500    2.6230 H       2  LIG2        0.0233
     39    H       31.2100    1.2600    4.8550 H       2  LIG2        0.0257
     40    H       30.8150    0.4340    6.3560 H       2  LIG2        0.0257
     41    H       30.8530    2.1840    6.3070 H       2  LIG2        0.0257
     42    H       27.4110    1.3730    6.3570 H       2  LIG2        0.2102
@<TRIPOS>BOND
     1    32    13    1
     2    33    13    1
     3    31    13    1
     4    13     3    1
     5    36    15    1
     6    17     2    1
     7    18     4    1
     8     3     2    1
     9     3     4    1
    10     3    12    1
    11    38    15    1
    12    15    37    1
    13    15     8    1
    14     2     4    1
    15     2     5    1
    16     4     7    1
    17    34    14    1
    18    29    12    1
    19    20     6    1
    20    28    12    1
    21    12    30    1
    22    27    11    1
    23     8     5    1
    24     8    14    1
    25     8    23    1
    26     5     6    1
    27     5    19    1
    28    22     7    1
    29     7    11    1
    30     7    21    1
    31    14    35    1
    32    14    10    1
    33     6    10    1
    34     6     9    1
    35    11     9    1
    36    11    26    1
    37    39    16    1
    38    25    10    1
    39    10    24    1
    40     9    16    1
    41     9     1    1
    42    16    41    1
    43    16    40    1
    44    42     1    1
@<TRIPOS>MOLECULE
11996452_4_run_22.pdb
 42 44 0 0 0
SMALL
GASTEIGER

@<TRIPOS>ATOM
      1    O       25.6710    1.3570    1.7170 O.3     2  LIG2       -0.3886
      2    C       28.0280    1.7880    5.0080 C.3     2  LIG2       -0.0289
      3    C       29.2680    0.9230    4.8780 C.3     2  LIG2       -0.0284
      4    C       27.9080    0.2600    4.9380 C.3     2  LIG2       -0.0319
      5    C       27.4320    2.6140    3.8400 C.3     2  LIG2       -0.0294
      6    C       25.8790    2.5380    3.8430 C.3     2  LIG2       -0.0090
      7    C       27.2040   -0.3890    3.7250 C.3     2  LIG2       -0.0468
      8    C       27.8160    4.1230    3.7930 C.3     2  LIG2       -0.0404
      9    C       25.2640    1.3170    3.0760 C.3     2  LIG2        0.0664
     10    C       25.4310    3.9280    3.3550 C.3     2  LIG2       -0.0471
     11    C       25.6920   -0.0720    3.6420 C.3     2  LIG2       -0.0237
     12    C       30.1100    0.9170    3.5820 C.3     2  LIG2       -0.0593
     13    C       30.1570    0.8100    6.1310 C.3     2  LIG2       -0.0593
     14    C       26.4900    4.8910    3.8790 C.3     2  LIG2       -0.0498
     15    C       28.8490    4.6000    4.8350 C.3     2  LIG2       -0.0621
     16    C       23.7180    1.3780    3.0580 C.3     2  LIG2       -0.0358
     17    H       27.8110    2.2370    5.9790 H       2  LIG2        0.0312
     18    H       27.6930   -0.2910    5.8550 H       2  LIG2        0.0309
     19    H       27.7770    2.2040    2.8930 H       2  LIG2        0.0310
     20    H       25.5420    2.4630    4.8790 H       2  LIG2        0.0331
     21    H       27.6810   -0.1440    2.7790 H       2  LIG2        0.0269
     22    H       27.3140   -1.4690    3.8250 H       2  LIG2        0.0269
     23    H       28.2450    4.3310    2.8110 H       2  LIG2        0.0301
     24    H       25.3890    3.9670    2.2660 H       2  LIG2        0.0269
     25    H       24.4410    4.1930    3.7300 H       2  LIG2        0.0269
     26    H       25.2140   -0.8560    3.0520 H       2  LIG2        0.0293
     27    H       25.2730   -0.1860    4.6430 H       2  LIG2        0.0293
     28    H       30.6940   -0.0020    3.5080 H       2  LIG2        0.0235
     29    H       30.8110    1.7520    3.5760 H       2  LIG2        0.0235
     30    H       29.5320    0.9910    2.6650 H       2  LIG2        0.0235
     31    H       30.7280   -0.1180    6.1250 H       2  LIG2        0.0235
     32    H       29.5710    0.8250    7.0520 H       2  LIG2        0.0235
     33    H       30.8620    1.6390    6.1840 H       2  LIG2        0.0235
     34    H       26.2680    5.1690    4.9110 H       2  LIG2        0.0268
     35    H       26.5130    5.8120    3.2930 H       2  LIG2        0.0268
     36    H       28.4820    4.4880    5.8550 H       2  LIG2        0.0233
     37    H       29.0890    5.6540    4.6900 H       2  LIG2        0.0233
     38    H       29.7820    4.0400    4.7490 H       2  LIG2        0.0233
     39    H       23.3120    1.3700    4.0700 H       2  LIG2        0.0257
     40    H       23.2840    0.5300    2.5260 H       2  LIG2        0.0257
     41    H       23.3490    2.2790    2.5660 H       2  LIG2        0.0257
     42    H       25.2320    0.6430    1.2470 H       2  LIG2        0.2102
@<TRIPOS>BOND
     1    42     1    1
     2     1     9    1
     3    24    10    1
     4    40    16    1
     5    41    16    1
     6    30    12    1
     7    21     7    1
     8    23     8    1
     9    19     5    1
    10    26    11    1
    11    16     9    1
    12    16    39    1
    13     9    11    1
    14     9     6    1
    15    35    14    1
    16    10    25    1
    17    10     6    1
    18    10    14    1
    19    28    12    1
    20    29    12    1
    21    12     3    1
    22    11     7    1
    23    11    27    1
    24     7    22    1
    25     7     4    1
    26     8     5    1
    27     8    14    1
    28     8    15    1
    29     5     6    1
    30     5     2    1
    31     6    20    1
    32    14    34    1
    33    37    15    1
    34    38    15    1
    35    15    36    1
    36     3     4    1
    37     3     2    1
    38     3    13    1
    39     4     2    1
    40     4    18    1
    41     2    17    1
    42    31    13    1
    43    13    33    1
    44    13    32    1
@<TRIPOS>MOLECULE
11996452_4_run_2.pdb
 42 44 0 0 0
SMALL
GASTEIGER

@<TRIPOS>ATOM
      1    O       27.5930    1.0970    4.6460 O.3     2  LIG2       -0.3886
      2    C       24.8130    3.7970    3.3980 C.3     2  LIG2       -0.0289
      3    C       23.5960    3.7490    4.3040 C.3     2  LIG2       -0.0284
      4    C       23.9590    2.5260    3.4890 C.3     2  LIG2       -0.0319
      5    C       26.2720    3.7270    3.9170 C.3     2  LIG2       -0.0294
      6    C       27.1460    2.8350    2.9910 C.3     2  LIG2       -0.0090
      7    C       24.5780    1.2390    4.0810 C.3     2  LIG2       -0.0468
      8    C       27.0140    5.0860    4.0790 C.3     2  LIG2       -0.0404
      9    C       27.1290    1.3020    3.3200 C.3     2  LIG2        0.0664
     10    C       28.5310    3.5080    3.0150 C.3     2  LIG2       -0.0471
     11    C       25.7180    0.6460    3.2220 C.3     2  LIG2       -0.0237
     12    C       23.7400    3.7620    5.8430 C.3     2  LIG2       -0.0593
     13    C       22.3690    4.5570    3.8430 C.3     2  LIG2       -0.0593
     14    C       28.2440    4.9980    3.1640 C.3     2  LIG2       -0.0498
     15    C       26.1780    6.3590    3.8320 C.3     2  LIG2       -0.0621
     16    C       28.0970    0.5140    2.4060 C.3     2  LIG2       -0.0358
     17    H       24.7380    4.3530    2.4620 H       2  LIG2        0.0312
     18    H       23.2810    2.2890    2.6670 H       2  LIG2        0.0309
     19    H       26.2830    3.2780    4.9080 H       2  LIG2        0.0310
     20    H       26.7810    2.9420    1.9670 H       2  LIG2        0.0331
     21    H       24.9220    1.3690    5.1050 H       2  LIG2        0.0269
     22    H       23.7830    0.4950    4.1420 H       2  LIG2        0.0269
     23    H       27.3820    5.1480    5.1050 H       2  LIG2        0.0301
     24    H       29.1260    3.1520    3.8570 H       2  LIG2        0.0269
     25    H       29.0990    3.3080    2.1050 H       2  LIG2        0.0269
     26    H       25.8050   -0.4160    3.4610 H       2  LIG2        0.0293
     27    H       25.3950    0.6670    2.1790 H       2  LIG2        0.0293
     28    H       22.8520    3.3400    6.3150 H       2  LIG2        0.0235
     29    H       23.8510    4.7840    6.2090 H       2  LIG2        0.0235
     30    H       24.5900    3.2030    6.2240 H       2  LIG2        0.0235
     31    H       21.4480    4.1430    4.2550 H       2  LIG2        0.0235
     32    H       22.2660    4.5620    2.7570 H       2  LIG2        0.0235
     33    H       22.4440    5.5960    4.1650 H       2  LIG2        0.0235
     34    H       28.0340    5.4400    2.1870 H       2  LIG2        0.0268
     35    H       29.1020    5.5280    3.5800 H       2  LIG2        0.0268
     36    H       25.8150    6.4160    2.8050 H       2  LIG2        0.0233
     37    H       26.7700    7.2550    4.0170 H       2  LIG2        0.0233
     38    H       25.3140    6.3970    4.4970 H       2  LIG2        0.0233
     39    H       27.8270    0.6280    1.3550 H       2  LIG2        0.0257
     40    H       28.0880   -0.5530    2.6300 H       2  LIG2        0.0257
     41    H       29.1290    0.8500    2.5150 H       2  LIG2        0.0257
     42    H       27.6130    0.1530    4.8180 H       2  LIG2        0.2102
@<TRIPOS>BOND
     1    39    16    1
     2    20     6    1
     3    25    10    1
     4    27    11    1
     5    34    14    1
     6    16    41    1
     7    16    40    1
     8    16     9    1
     9    17     2    1
    10    18     4    1
    11    32    13    1
    12    36    15    1
    13     6    10    1
    14     6     9    1
    15     6     5    1
    16    10    14    1
    17    10    24    1
    18    14    35    1
    19    14     8    1
    20    11     9    1
    21    11    26    1
    22    11     7    1
    23     9     1    1
    24     2     4    1
    25     2     5    1
    26     2     3    1
    27     4     7    1
    28     4     3    1
    29    15    37    1
    30    15     8    1
    31    15    38    1
    32    13    33    1
    33    13    31    1
    34    13     3    1
    35     5     8    1
    36     5    19    1
    37     8    23    1
    38     7    22    1
    39     7    21    1
    40     3    12    1
    41     1    42    1
    42    12    29    1
    43    12    30    1
    44    12    28    1
