@<TRIPOS>MOLECULE
11996452_7_run_7.pdb
 42 44 0 0 0
SMALL
GASTEIGER

@<TRIPOS>ATOM
      1    O       25.5320    5.3220    5.3490 O.3     2  LIG2       -0.3886
      2    C       27.2290    2.9510    4.8690 C.3     2  LIG2       -0.0289
      3    C       28.7070    2.6160    4.7160 C.3     2  LIG2       -0.0284
      4    C       28.2750    4.0620    4.7210 C.3     2  LIG2       -0.0319
      5    C       26.1830    2.7470    3.7320 C.3     2  LIG2       -0.0294
      6    C       25.2600    3.9590    3.3540 C.3     2  LIG2       -0.0090
      7    C       28.1740    4.9550    3.4720 C.3     2  LIG2       -0.0468
      8    C       25.2460    1.5500    4.0270 C.3     2  LIG2       -0.0404
      9    C       25.5790    5.3860    3.9320 C.3     2  LIG2        0.0664
     10    C       23.8260    3.4510    3.6050 C.3     2  LIG2       -0.0471
     11    C       26.9830    5.9370    3.5170 C.3     2  LIG2       -0.0237
     12    C       29.4210    2.0970    5.9780 C.3     2  LIG2       -0.0593
     13    C       29.2730    1.9630    3.4330 C.3     2  LIG2       -0.0593
     14    C       23.8940    1.9370    3.4250 C.3     2  LIG2       -0.0498
     15    C       25.7910    0.2030    3.5190 C.3     2  LIG2       -0.0621
     16    C       24.5110    6.4290    3.5230 C.3     2  LIG2       -0.0358
     17    H       26.7790    2.8570    5.8590 H       2  LIG2        0.0312
     18    H       28.5440    4.6440    5.6030 H       2  LIG2        0.0309
     19    H       26.7110    2.5130    2.8100 H       2  LIG2        0.0310
     20    H       25.3330    4.0770    2.2700 H       2  LIG2        0.0331
     21    H       29.0990    5.5210    3.3650 H       2  LIG2        0.0269
     22    H       28.0940    4.3650    2.5610 H       2  LIG2        0.0269
     23    H       25.0920    1.4630    5.1050 H       2  LIG2        0.0301
     24    H       23.4970    3.6950    4.6160 H       2  LIG2        0.0269
     25    H       23.1070    3.8930    2.9140 H       2  LIG2        0.0269
     26    H       27.2460    6.7830    4.1550 H       2  LIG2        0.0293
     27    H       26.9060    6.3580    2.5130 H       2  LIG2        0.0293
     28    H       30.4900    2.3080    5.9390 H       2  LIG2        0.0235
     29    H       29.2950    1.0190    6.0840 H       2  LIG2        0.0235
     30    H       29.0330    2.5580    6.8880 H       2  LIG2        0.0235
     31    H       30.3450    2.1430    3.3550 H       2  LIG2        0.0235
     32    H       28.8320    2.3250    2.5090 H       2  LIG2        0.0235
     33    H       29.1220    0.8830    3.4540 H       2  LIG2        0.0235
     34    H       23.8480    1.6750    2.3670 H       2  LIG2        0.0268
     35    H       23.0620    1.4390    3.9260 H       2  LIG2        0.0268
     36    H       25.9480    0.2150    2.4390 H       2  LIG2        0.0233
     37    H       25.0990   -0.6100    3.7430 H       2  LIG2        0.0233
     38    H       26.7440   -0.0370    3.9900 H       2  LIG2        0.0233
     39    H       24.4340    6.5120    2.4390 H       2  LIG2        0.0257
     40    H       24.7460    7.4210    3.9110 H       2  LIG2        0.0257
     41    H       23.5200    6.1710    3.8990 H       2  LIG2        0.0257
     42    H       25.9240    6.1230    5.7020 H       2  LIG2        0.2102
@<TRIPOS>BOND
     1    20     6    1
     2    34    14    1
     3    36    15    1
     4    39    16    1
     5    32    13    1
     6    27    11    1
     7    22     7    1
     8    19     5    1
     9    25    10    1
    10     6    10    1
    11     6     5    1
    12     6     9    1
    13    31    13    1
    14    21     7    1
    15    14    10    1
    16    14    35    1
    17    14     8    1
    18    13    33    1
    19    13     3    1
    20     7    11    1
    21     7     4    1
    22    11     9    1
    23    11    26    1
    24    15    37    1
    25    15    38    1
    26    15     8    1
    27    16    41    1
    28    16    40    1
    29    16     9    1
    30    10    24    1
    31     5     8    1
    32     5     2    1
    33     9     1    1
    34     8    23    1
    35     3     4    1
    36     3     2    1
    37     3    12    1
    38     4     2    1
    39     4    18    1
    40     2    17    1
    41     1    42    1
    42    28    12    1
    43    12    29    1
    44    12    30    1
@<TRIPOS>MOLECULE
11996452_7_run_15.pdb
 42 44 0 0 0
SMALL
GASTEIGER

@<TRIPOS>ATOM
      1    O       29.4810    1.8010    3.1280 O.3     2  LIG2       -0.3886
      2    C       27.0960    3.5450    3.1850 C.3     2  LIG2       -0.0289
      3    C       26.7460    4.9930    3.5060 C.3     2  LIG2       -0.0284
      4    C       28.1200    4.4710    3.8540 C.3     2  LIG2       -0.0319
      5    C       26.5410    2.3320    3.9910 C.3     2  LIG2       -0.0294
      6    C       27.5680    1.2770    4.5340 C.3     2  LIG2       -0.0090
      7    C       28.5850    4.0910    5.2700 C.3     2  LIG2       -0.0468
      8    C       25.4820    1.5450    3.1800 C.3     2  LIG2       -0.0404
      9    C       29.1070    1.5950    4.4810 C.3     2  LIG2        0.0664
     10    C       27.1450   -0.0530    3.8780 C.3     2  LIG2       -0.0471
     11    C       29.5200    2.8630    5.2980 C.3     2  LIG2       -0.0237
     12    C       26.6480    5.9510    2.3040 C.3     2  LIG2       -0.0593
     13    C       25.7380    5.3690    4.6160 C.3     2  LIG2       -0.0593
     14    C       25.6500    0.0860    3.6050 C.3     2  LIG2       -0.0498
     15    C       24.0510    2.0830    3.3550 C.3     2  LIG2       -0.0621
     16    C       29.9620    0.4020    4.9750 C.3     2  LIG2       -0.0358
     17    H       27.3050    3.2830    2.1470 H       2  LIG2        0.0312
     18    H       28.9470    4.8500    3.2530 H       2  LIG2        0.0309
     19    H       26.0410    2.7060    4.8830 H       2  LIG2        0.0310
     20    H       27.3490    1.1510    5.5970 H       2  LIG2        0.0331
     21    H       29.1010    4.9430    5.7130 H       2  LIG2        0.0269
     22    H       27.7430    3.8930    5.9300 H       2  LIG2        0.0269
     23    H       25.7280    1.5890    2.1170 H       2  LIG2        0.0301
     24    H       27.6850   -0.2150    2.9430 H       2  LIG2        0.0269
     25    H       27.3460   -0.9100    4.5210 H       2  LIG2        0.0269
     26    H       30.5240    3.1760    5.0040 H       2  LIG2        0.0293
     27    H       29.6120    2.5830    6.3490 H       2  LIG2        0.0293
     28    H       26.8490    6.9790    2.6050 H       2  LIG2        0.0235
     29    H       25.6540    5.9200    1.8590 H       2  LIG2        0.0235
     30    H       27.3620    5.6990    1.5180 H       2  LIG2        0.0235
     31    H       25.8980    6.3950    4.9450 H       2  LIG2        0.0235
     32    H       25.7940    4.7480    5.5070 H       2  LIG2        0.0235
     33    H       24.7150    5.2970    4.2450 H       2  LIG2        0.0235
     34    H       25.0750   -0.1280    4.5080 H       2  LIG2        0.0268
     35    H       25.3200   -0.6090    2.8320 H       2  LIG2        0.0268
     36    H       23.7320    2.0470    4.3990 H       2  LIG2        0.0233
     37    H       23.3380    1.4990    2.7720 H       2  LIG2        0.0233
     38    H       23.9770    3.1190    3.0220 H       2  LIG2        0.0233
     39    H       29.7080    0.1310    6.0000 H       2  LIG2        0.0257
     40    H       31.0280    0.6340    4.9540 H       2  LIG2        0.0257
     41    H       29.8210   -0.4880    4.3600 H       2  LIG2        0.0257
     42    H       30.4350    1.8940    3.0880 H       2  LIG2        0.2102
@<TRIPOS>BOND
     1    30    12    1
     2    29    12    1
     3    23     8    1
     4    17     2    1
     5    12    28    1
     6    12     3    1
     7    37    15    1
     8    35    14    1
     9    24    10    1
    10    38    15    1
    11    42     1    1
    12     1     9    1
    13     8    15    1
    14     8    14    1
    15     8     5    1
    16     2     3    1
    17     2     4    1
    18     2     5    1
    19    18     4    1
    20    15    36    1
    21     3     4    1
    22     3    13    1
    23    14    10    1
    24    14    34    1
    25     4     7    1
    26    10    25    1
    27    10     6    1
    28     5     6    1
    29     5    19    1
    30    33    13    1
    31    41    16    1
    32     9     6    1
    33     9    16    1
    34     9    11    1
    35     6    20    1
    36    13    31    1
    37    13    32    1
    38    40    16    1
    39    16    39    1
    40    26    11    1
    41     7    11    1
    42     7    21    1
    43     7    22    1
    44    11    27    1
@<TRIPOS>MOLECULE
11996452_7_run_24.pdb
 42 44 0 0 0
SMALL
GASTEIGER

@<TRIPOS>ATOM
      1    O       28.5960    3.7980    2.6090 O.3     2  LIG2       -0.3886
      2    C       28.9640    0.9780    3.4130 C.3     2  LIG2       -0.0289
      3    C       28.4780   -0.4030    2.9930 C.3     2  LIG2       -0.0284
      4    C       27.8130    0.8220    2.4120 C.3     2  LIG2       -0.0319
      5    C       28.6650    1.6020    4.8090 C.3     2  LIG2       -0.0294
      6    C       28.0500    3.0460    4.8550 C.3     2  LIG2       -0.0090
      7    C       26.4380    1.3630    2.8380 C.3     2  LIG2       -0.0468
      8    C       29.9300    1.6300    5.7040 C.3     2  LIG2       -0.0404
      9    C       27.5200    3.7040    3.5300 C.3     2  LIG2        0.0664
     10    C       29.0760    3.8830    5.6440 C.3     2  LIG2       -0.0471
     11    C       26.3620    2.9060    2.8450 C.3     2  LIG2       -0.0237
     12    C       29.4110   -1.1980    2.0610 C.3     2  LIG2       -0.0593
     13    C       27.7130   -1.3350    3.9610 C.3     2  LIG2       -0.0593
     14    C       29.7940    2.8920    6.5570 C.3     2  LIG2       -0.0498
     15    C       30.1310    0.3430    6.5240 C.3     2  LIG2       -0.0621
     16    C       27.0360    5.1570    3.7580 C.3     2  LIG2       -0.0358
     17    H       29.9050    1.3420    2.9960 H       2  LIG2        0.0312
     18    H       28.0090    1.0250    1.3590 H       2  LIG2        0.0309
     19    H       27.9330    0.9800    5.3200 H       2  LIG2        0.0310
     20    H       27.1730    2.9870    5.5040 H       2  LIG2        0.0331
     21    H       25.6780    0.9720    2.1630 H       2  LIG2        0.0269
     22    H       26.1530    1.0050    3.8260 H       2  LIG2        0.0269
     23    H       30.8160    1.7710    5.0800 H       2  LIG2        0.0301
     24    H       29.7900    4.3600    4.9710 H       2  LIG2        0.0269
     25    H       28.6010    4.6740    6.2260 H       2  LIG2        0.0269
     26    H       26.2320    3.2580    1.8200 H       2  LIG2        0.0293
     27    H       25.4260    3.1560    3.3460 H       2  LIG2        0.0293
     28    H       28.8490   -1.9140    1.4620 H       2  LIG2        0.0235
     29    H       30.1570   -1.7500    2.6330 H       2  LIG2        0.0235
     30    H       29.9500   -0.5490    1.3680 H       2  LIG2        0.0235
     31    H       27.1390   -2.0750    3.4040 H       2  LIG2        0.0235
     32    H       27.0070   -0.8280    4.6140 H       2  LIG2        0.0235
     33    H       28.4090   -1.8740    4.6050 H       2  LIG2        0.0235
     34    H       29.2000    2.6980    7.4520 H       2  LIG2        0.0268
     35    H       30.7620    3.2780    6.8800 H       2  LIG2        0.0268
     36    H       29.2850    0.1540    7.1880 H       2  LIG2        0.0233
     37    H       31.0280    0.4070    7.1410 H       2  LIG2        0.0233
     38    H       30.2410   -0.5240    5.8720 H       2  LIG2        0.0233
     39    H       26.2360    5.1950    4.4980 H       2  LIG2        0.0257
     40    H       26.6520    5.6030    2.8390 H       2  LIG2        0.0257
     41    H       27.8370    5.8060    4.1130 H       2  LIG2        0.0257
     42    H       29.2980    4.3100    3.0140 H       2  LIG2        0.2102
@<TRIPOS>BOND
     1    18     4    1
     2    30    12    1
     3    28    12    1
     4    26    11    1
     5    12    29    1
     6    12     3    1
     7    21     7    1
     8     4     7    1
     9     4     3    1
    10     4     2    1
    11     1    42    1
    12     1     9    1
    13     7    11    1
    14     7    22    1
    15    40    16    1
    16    11    27    1
    17    11     9    1
    18     3     2    1
    19     3    13    1
    20    17     2    1
    21    31    13    1
    22     2     5    1
    23     9    16    1
    24     9     6    1
    25    16    41    1
    26    16    39    1
    27    13    33    1
    28    13    32    1
    29     5     6    1
    30     5    19    1
    31     5     8    1
    32     6    20    1
    33     6    10    1
    34    24    10    1
    35    23     8    1
    36    10    25    1
    37    10    14    1
    38     8    15    1
    39     8    14    1
    40    38    15    1
    41    15    37    1
    42    15    36    1
    43    14    35    1
    44    14    34    1
@<TRIPOS>MOLECULE
11996452_7_run_9.pdb
 42 44 0 0 0
SMALL
GASTEIGER

@<TRIPOS>ATOM
      1    O       28.4610   -1.6070    4.1050 O.3     2  LIG2       -0.3886
      2    C       27.3940    1.1080    4.5810 C.3     2  LIG2       -0.0289
      3    C       26.5540    2.1490    3.8520 C.3     2  LIG2       -0.0284
      4    C       27.0600    0.9460    3.0930 C.3     2  LIG2       -0.0319
      5    C       28.8770    1.3430    4.9950 C.3     2  LIG2       -0.0294
      6    C       29.9390    0.2640    4.5800 C.3     2  LIG2       -0.0090
      7    C       28.2400    0.9600    2.1060 C.3     2  LIG2       -0.0468
      8    C       29.0170    1.5380    6.5260 C.3     2  LIG2       -0.0404
      9    C       29.5390   -0.8630    3.5600 C.3     2  LIG2        0.0664
     10    C       30.5330   -0.2330    5.9130 C.3     2  LIG2       -0.0471
     11    C       29.0980   -0.3220    2.1600 C.3     2  LIG2       -0.0237
     12    C       25.0530    2.1750    4.1980 C.3     2  LIG2       -0.0593
     13    C       27.0900    3.5650    3.5400 C.3     2  LIG2       -0.0593
     14    C       30.3730    0.9310    6.8880 C.3     2  LIG2       -0.0498
     15    C       28.8490    3.0000    6.9770 C.3     2  LIG2       -0.0621
     16    C       30.6850   -1.8820    3.3440 C.3     2  LIG2       -0.0358
     17    H       26.8860    0.4160    5.2550 H       2  LIG2        0.0312
     18    H       26.3120    0.2070    2.8050 H       2  LIG2        0.0309
     19    H       29.2290    2.2610    4.5290 H       2  LIG2        0.0310
     20    H       30.7530    0.8040    4.0900 H       2  LIG2        0.0331
     21    H       27.8540    1.0890    1.0940 H       2  LIG2        0.0269
     22    H       28.8930    1.8150    2.2720 H       2  LIG2        0.0269
     23    H       28.2620    0.9400    7.0410 H       2  LIG2        0.0301
     24    H       29.9930   -1.1070    6.2790 H       2  LIG2        0.0269
     25    H       31.5810   -0.5170    5.8150 H       2  LIG2        0.0269
     26    H       28.5870   -1.1130    1.6070 H       2  LIG2        0.0293
     27    H       29.9930   -0.1060    1.5740 H       2  LIG2        0.0293
     28    H       24.4680    2.5800    3.3720 H       2  LIG2        0.0235
     29    H       24.8650    2.7910    5.0770 H       2  LIG2        0.0235
     30    H       24.6630    1.1780    4.4130 H       2  LIG2        0.0235
     31    H       26.5270    4.0140    2.7210 H       2  LIG2        0.0235
     32    H       28.1360    3.5990    3.2480 H       2  LIG2        0.0235
     33    H       26.9830    4.2160    4.4080 H       2  LIG2        0.0235
     34    H       31.1760    1.6570    6.7520 H       2  LIG2        0.0268
     35    H       30.4090    0.5900    7.9240 H       2  LIG2        0.0268
     36    H       29.5910    3.6510    6.5120 H       2  LIG2        0.0233
     37    H       28.9600    3.0920    8.0580 H       2  LIG2        0.0233
     38    H       27.8620    3.3800    6.7140 H       2  LIG2        0.0233
     39    H       31.5850   -1.3920    2.9720 H       2  LIG2        0.0257
     40    H       30.4090   -2.6520    2.6210 H       2  LIG2        0.0257
     41    H       30.9540   -2.3990    4.2660 H       2  LIG2        0.0257
     42    H       28.7720   -2.0590    4.8920 H       2  LIG2        0.2102
@<TRIPOS>BOND
     1    21     7    1
     2    27    11    1
     3    26    11    1
     4     7    11    1
     5     7    22    1
     6     7     4    1
     7    11     9    1
     8    40    16    1
     9    31    13    1
    10    18     4    1
    11    39    16    1
    12     4     3    1
    13     4     2    1
    14    32    13    1
    15    16     9    1
    16    16    41    1
    17    28    12    1
    18    13     3    1
    19    13    33    1
    20     9     1    1
    21     9     6    1
    22     3    12    1
    23     3     2    1
    24    20     6    1
    25     1    42    1
    26    12    30    1
    27    12    29    1
    28    19     5    1
    29     6     5    1
    30     6    10    1
    31     2     5    1
    32     2    17    1
    33     5     8    1
    34    25    10    1
    35    10    24    1
    36    10    14    1
    37    36    15    1
    38     8    14    1
    39     8    15    1
    40     8    23    1
    41    38    15    1
    42    34    14    1
    43    14    35    1
    44    15    37    1
@<TRIPOS>MOLECULE
11996452_7_run_13.pdb
 42 44 0 0 0
SMALL
GASTEIGER

@<TRIPOS>ATOM
      1    O       26.5430    3.8930    5.5080 O.3     2  LIG2       -0.3886
      2    C       28.1800    1.4360    5.6170 C.3     2  LIG2       -0.0289
      3    C       29.6040    1.0260    5.9730 C.3     2  LIG2       -0.0284
      4    C       29.2690    2.4920    5.8400 C.3     2  LIG2       -0.0319
      5    C       27.5740    1.2720    4.1910 C.3     2  LIG2       -0.0294
      6    C       26.8960    2.5240    3.5300 C.3     2  LIG2       -0.0090
      7    C       29.6430    3.3760    4.6370 C.3     2  LIG2       -0.0468
      8    C       26.5330    0.1260    4.1420 C.3     2  LIG2       -0.0404
      9    C       27.0720    3.9390    4.1920 C.3     2  LIG2        0.0664
     10    C       25.4390    2.0910    3.2750 C.3     2  LIG2       -0.0471
     11    C       28.5590    4.4160    4.2820 C.3     2  LIG2       -0.0237
     12    C       29.8190    0.4860    7.3990 C.3     2  LIG2       -0.0593
     13    C       30.5380    0.3320    4.9540 C.3     2  LIG2       -0.0593
     14    C       25.4880    0.5730    3.1190 C.3     2  LIG2       -0.0498
     15    C       27.1500   -1.2510    3.8400 C.3     2  LIG2       -0.0621
     16    C       26.2600    5.0300    3.4510 C.3     2  LIG2       -0.0358
     17    H       27.4170    1.3750    6.3940 H       2  LIG2        0.0312
     18    H       29.2520    3.0690    6.7650 H       2  LIG2        0.0309
     19    H       28.3720    1.0020    3.5010 H       2  LIG2        0.0310
     20    H       27.3390    2.6270    2.5360 H       2  LIG2        0.0331
     21    H       30.5770    3.8930    4.8550 H       2  LIG2        0.0269
     22    H       29.8480    2.7800    3.7490 H       2  LIG2        0.0269
     23    H       26.0180    0.0590    5.1030 H       2  LIG2        0.0301
     24    H       24.7990    2.3620    4.1170 H       2  LIG2        0.0269
     25    H       25.0200    2.5610    2.3850 H       2  LIG2        0.0269
     26    H       28.6320    5.2550    4.9770 H       2  LIG2        0.0293
     27    H       28.8490    4.8300    3.3150 H       2  LIG2        0.0293
     28    H       30.8470    0.6430    7.7260 H       2  LIG2        0.0235
     29    H       29.6110   -0.5830    7.4480 H       2  LIG2        0.0235
     30    H       29.1700    0.9750    8.1260 H       2  LIG2        0.0235
     31    H       31.5810    0.4580    5.2460 H       2  LIG2        0.0235
     32    H       30.4560    0.7060    3.9370 H       2  LIG2        0.0235
     33    H       30.3350   -0.7390    4.9150 H       2  LIG2        0.0235
     34    H       25.7900    0.3030    2.1060 H       2  LIG2        0.0268
     35    H       24.5110    0.1230    3.3040 H       2  LIG2        0.0268
     36    H       27.6650   -1.2590    2.8770 H       2  LIG2        0.0233
     37    H       26.3830   -2.0270    3.8100 H       2  LIG2        0.0233
     38    H       27.8730   -1.5340    4.6050 H       2  LIG2        0.0233
     39    H       26.5600    5.1050    2.4060 H       2  LIG2        0.0257
     40    H       26.3990    6.0130    3.9030 H       2  LIG2        0.0257
     41    H       25.1880    4.8260    3.4670 H       2  LIG2        0.0257
     42    H       25.6020    3.7160    5.4500 H       2  LIG2        0.2102
@<TRIPOS>BOND
     1    34    14    1
     2    25    10    1
     3    39    16    1
     4    20     6    1
     5    36    15    1
     6    14    10    1
     7    14    35    1
     8    14     8    1
     9    10     6    1
    10    10    24    1
    11    27    11    1
    12    16    41    1
    13    16    40    1
    14    16     9    1
    15    19     5    1
    16     6     5    1
    17     6     9    1
    18    22     7    1
    19    37    15    1
    20    15     8    1
    21    15    38    1
    22    32    13    1
    23     8     5    1
    24     8    23    1
    25     5     2    1
    26     9    11    1
    27     9     1    1
    28    11     7    1
    29    11    26    1
    30     7    21    1
    31     7     4    1
    32    33    13    1
    33    13    31    1
    34    13     3    1
    35    42     1    1
    36     2     4    1
    37     2     3    1
    38     2    17    1
    39     4     3    1
    40     4    18    1
    41     3    12    1
    42    12    29    1
    43    12    28    1
    44    12    30    1
@<TRIPOS>MOLECULE
11996452_7_run_17.pdb
 42 44 0 0 0
SMALL
GASTEIGER

@<TRIPOS>ATOM
      1    O       30.9860    1.5950    4.9060 O.3     2  LIG2       -0.3886
      2    C       28.4880    2.8820    3.9900 C.3     2  LIG2       -0.0289
      3    C       27.5770    4.0310    4.4020 C.3     2  LIG2       -0.0284
      4    C       28.6650    3.5770    5.3450 C.3     2  LIG2       -0.0319
      5    C       28.0290    1.3930    3.9640 C.3     2  LIG2       -0.0294
      6    C       28.9150    0.3360    4.7130 C.3     2  LIG2       -0.0090
      7    C       28.4390    2.7220    6.6040 C.3     2  LIG2       -0.0468
      8    C       27.8520    0.8770    2.5140 C.3     2  LIG2       -0.0404
      9    C       30.0660    0.8250    5.6650 C.3     2  LIG2        0.0664
     10    C       29.3430   -0.6620    3.6180 C.3     2  LIG2       -0.0471
     11    C       29.5690    1.7020    6.8610 C.3     2  LIG2       -0.0237
     12    C       27.7990    5.3700    3.6740 C.3     2  LIG2       -0.0593
     13    C       26.0860    3.8130    4.7500 C.3     2  LIG2       -0.0593
     14    C       28.2430   -0.6010    2.5610 C.3     2  LIG2       -0.0498
     15    C       26.4470    1.1300    1.9400 C.3     2  LIG2       -0.0621
     16    C       30.8840   -0.3570    6.2400 C.3     2  LIG2       -0.0358
     17    H       29.2680    3.0820    3.2530 H       2  LIG2        0.0312
     18    H       29.5070    4.2580    5.4740 H       2  LIG2        0.0309
     19    H       27.0560    1.3190    4.4450 H       2  LIG2        0.0310
     20    H       28.2410   -0.2280    5.3620 H       2  LIG2        0.0331
     21    H       28.3490    3.3800    7.4680 H       2  LIG2        0.0269
     22    H       27.4960    2.1810    6.5590 H       2  LIG2        0.0269
     23    H       28.5750    1.3680    1.8590 H       2  LIG2        0.0301
     24    H       30.3000   -0.3740    3.1810 H       2  LIG2        0.0269
     25    H       29.4540   -1.6750    4.0060 H       2  LIG2        0.0269
     26    H       30.4180    2.2200    7.3110 H       2  LIG2        0.0293
     27    H       29.2000    1.0400    7.6450 H       2  LIG2        0.0293
     28    H       27.4720    6.2090    4.2880 H       2  LIG2        0.0235
     29    H       27.2410    5.4030    2.7370 H       2  LIG2        0.0235
     30    H       28.8490    5.5360    3.4310 H       2  LIG2        0.0235
     31    H       25.7130    4.6350    5.3610 H       2  LIG2        0.0235
     32    H       25.8790    2.9010    5.3030 H       2  LIG2        0.0235
     33    H       25.4810    3.7770    3.8430 H       2  LIG2        0.0235
     34    H       27.3950   -1.2220    2.8550 H       2  LIG2        0.0268
     35    H       28.5990   -0.9640    1.5950 H       2  LIG2        0.0268
     36    H       25.6740    0.6450    2.5390 H       2  LIG2        0.0233
     37    H       26.3640    0.7470    0.9220 H       2  LIG2        0.0233
     38    H       26.2220    2.1960    1.9090 H       2  LIG2        0.0233
     39    H       30.2490   -1.0410    6.8020 H       2  LIG2        0.0257
     40    H       31.6710   -0.0130    6.9140 H       2  LIG2        0.0257
     41    H       31.3740   -0.9380    5.4570 H       2  LIG2        0.0257
     42    H       31.5060    0.9990    4.3640 H       2  LIG2        0.2102
@<TRIPOS>BOND
     1    37    15    1
     2    35    14    1
     3    23     8    1
     4    38    15    1
     5    15     8    1
     6    15    36    1
     7     8    14    1
     8     8     5    1
     9    14    34    1
    10    14    10    1
    11    29    12    1
    12    24    10    1
    13    17     2    1
    14    30    12    1
    15    10    25    1
    16    10     6    1
    17    12    28    1
    18    12     3    1
    19    33    13    1
    20     5     2    1
    21     5    19    1
    22     5     6    1
    23     2     3    1
    24     2     4    1
    25    42     1    1
    26     3    13    1
    27     3     4    1
    28     6    20    1
    29     6     9    1
    30    13    32    1
    31    13    31    1
    32     1     9    1
    33     4    18    1
    34     4     7    1
    35    41    16    1
    36     9    16    1
    37     9    11    1
    38    16    39    1
    39    16    40    1
    40    22     7    1
    41     7    11    1
    42     7    21    1
    43    11    26    1
    44    11    27    1
@<TRIPOS>MOLECULE
11996452_7_run_6.pdb
 42 44 0 0 0
SMALL
GASTEIGER

@<TRIPOS>ATOM
      1    O       28.6100   -0.2770    5.9660 O.3     2  LIG2       -0.3886
      2    C       26.8930    1.2210    4.0840 C.3     2  LIG2       -0.0289
      3    C       26.0510    0.9520    2.8440 C.3     2  LIG2       -0.0284
      4    C       26.9770   -0.1260    3.3550 C.3     2  LIG2       -0.0319
      5    C       28.1420    2.1540    4.0840 C.3     2  LIG2       -0.0294
      6    C       29.4820    1.5910    4.6770 C.3     2  LIG2       -0.0090
      7    C       28.3300   -0.4960    2.7240 C.3     2  LIG2       -0.0468
      8    C       27.8560    3.4880    4.8180 C.3     2  LIG2       -0.0404
      9    C       29.6000    0.0590    5.0060 C.3     2  LIG2        0.0664
     10    C       29.8250    2.5440    5.8390 C.3     2  LIG2       -0.0471
     11    C       29.4080   -0.8720    3.7640 C.3     2  LIG2       -0.0237
     12    C       24.5430    0.7440    3.0790 C.3     2  LIG2       -0.0593
     13    C       26.3240    1.6560    1.4950 C.3     2  LIG2       -0.0593
     14    C       29.1810    3.8790    5.4740 C.3     2  LIG2       -0.0498
     15    C       27.2680    4.5780    3.9040 C.3     2  LIG2       -0.0621
     16    C       30.9570   -0.2890    5.6650 C.3     2  LIG2       -0.0358
     17    H       26.4000    1.2000    5.0570 H       2  LIG2        0.0312
     18    H       26.5020   -0.9940    3.8120 H       2  LIG2        0.0309
     19    H       28.3870    2.4080    3.0550 H       2  LIG2        0.0310
     20    H       30.2530    1.7720    3.9240 H       2  LIG2        0.0331
     21    H       28.1850   -1.3330    2.0410 H       2  LIG2        0.0269
     22    H       28.7200    0.3110    2.1070 H       2  LIG2        0.0269
     23    H       27.1480    3.3140    5.6310 H       2  LIG2        0.0301
     24    H       29.4160    2.1750    6.7810 H       2  LIG2        0.0269
     25    H       30.9020    2.6550    5.9750 H       2  LIG2        0.0269
     26    H       29.2330   -1.8970    4.0990 H       2  LIG2        0.0293
     27    H       30.3490   -0.9160    3.2150 H       2  LIG2        0.0293
     28    H       24.1030    0.1350    2.2880 H       2  LIG2        0.0235
     29    H       24.0150    1.6970    3.1010 H       2  LIG2        0.0235
     30    H       24.3390    0.2400    4.0250 H       2  LIG2        0.0235
     31    H       25.8950    1.0850    0.6720 H       2  LIG2        0.0235
     32    H       27.3770    1.7900    1.2600 H       2  LIG2        0.0235
     33    H       25.8680    2.6470    1.4810 H       2  LIG2        0.0235
     34    H       29.8150    4.4310    4.7770 H       2  LIG2        0.0268
     35    H       29.0360    4.5060    6.3550 H       2  LIG2        0.0268
     36    H       27.9410    4.8160    3.0780 H       2  LIG2        0.0233
     37    H       27.0880    5.4990    4.4590 H       2  LIG2        0.0233
     38    H       26.3170    4.2600    3.4770 H       2  LIG2        0.0233
     39    H       31.7920   -0.0170    5.0180 H       2  LIG2        0.0257
     40    H       31.0420   -1.3570    5.8740 H       2  LIG2        0.0257
     41    H       31.0990    0.2300    6.6140 H       2  LIG2        0.0257
     42    H       28.6320   -1.2260    6.1050 H       2  LIG2        0.2102
@<TRIPOS>BOND
     1    31    13    1
     2    32    13    1
     3    33    13    1
     4    13     3    1
     5    21     7    1
     6    22     7    1
     7    28    12    1
     8     7     4    1
     9     7    11    1
    10     3    12    1
    11     3     4    1
    12     3     2    1
    13    19     5    1
    14    36    15    1
    15    12    29    1
    16    12    30    1
    17    27    11    1
    18     4    18    1
    19     4     2    1
    20    38    15    1
    21    11    26    1
    22    11     9    1
    23    15    37    1
    24    15     8    1
    25    20     6    1
    26     2     5    1
    27     2    17    1
    28     5     6    1
    29     5     8    1
    30     6     9    1
    31     6    10    1
    32    34    14    1
    33     8    14    1
    34     8    23    1
    35     9    16    1
    36     9     1    1
    37    39    16    1
    38    14    10    1
    39    14    35    1
    40    16    40    1
    41    16    41    1
    42    10    25    1
    43    10    24    1
    44     1    42    1
@<TRIPOS>MOLECULE
11996452_7_run_12.pdb
 42 44 0 0 0
SMALL
GASTEIGER

@<TRIPOS>ATOM
      1    O       25.8720    2.2740    2.2790 O.3     2  LIG2       -0.3886
      2    C       28.4860    1.1990    3.1410 C.3     2  LIG2       -0.0289
      3    C       29.1790   -0.1510    3.2740 C.3     2  LIG2       -0.0284
      4    C       27.6960   -0.1070    2.9940 C.3     2  LIG2       -0.0319
      5    C       28.1820    2.1280    4.3550 C.3     2  LIG2       -0.0294
      6    C       26.7160    2.6610    4.5260 C.3     2  LIG2       -0.0090
      7    C       26.5950   -0.3790    4.0340 C.3     2  LIG2       -0.0468
      8    C       29.1100    3.3680    4.3700 C.3     2  LIG2       -0.0404
      9    C       25.5630    2.0530    3.6460 C.3     2  LIG2        0.0664
     10    C       26.8490    4.1960    4.4700 C.3     2  LIG2       -0.0471
     11    C       25.3500    0.5180    3.8550 C.3     2  LIG2       -0.0237
     12    C       30.0960   -0.5620    2.1080 C.3     2  LIG2       -0.0593
     13    C       29.7130   -0.6710    4.6290 C.3     2  LIG2       -0.0593
     14    C       28.2640    4.4980    4.9560 C.3     2  LIG2       -0.0498
     15    C       30.4370    3.1330    5.1140 C.3     2  LIG2       -0.0621
     16    C       24.2110    2.7660    3.8910 C.3     2  LIG2       -0.0358
     17    H       28.6340    1.7660    2.2200 H       2  LIG2        0.0312
     18    H       27.3830   -0.4160    1.9960 H       2  LIG2        0.0309
     19    H       28.3780    1.5770    5.2730 H       2  LIG2        0.0310
     20    H       26.4240    2.4390    5.5550 H       2  LIG2        0.0331
     21    H       26.2940   -1.4240    3.9660 H       2  LIG2        0.0269
     22    H       26.9620   -0.2530    5.0500 H       2  LIG2        0.0269
     23    H       29.3490    3.6590    3.3450 H       2  LIG2        0.0301
     24    H       26.7160    4.5620    3.4510 H       2  LIG2        0.0269
     25    H       26.1080    4.6960    5.0950 H       2  LIG2        0.0269
     26    H       24.7410    0.1200    3.0410 H       2  LIG2        0.0293
     27    H       24.7460    0.3710    4.7520 H       2  LIG2        0.0293
     28    H       30.1820   -1.6470    2.0400 H       2  LIG2        0.0235
     29    H       31.0990   -0.1540    2.2360 H       2  LIG2        0.0235
     30    H       29.7230   -0.2070    1.1460 H       2  LIG2        0.0235
     31    H       29.8220   -1.7560    4.6050 H       2  LIG2        0.0235
     32    H       29.0800   -0.4440    5.4820 H       2  LIG2        0.0235
     33    H       30.6950   -0.2470    4.8420 H       2  LIG2        0.0235
     34    H       28.3030    4.4920    6.0470 H       2  LIG2        0.0268
     35    H       28.5990    5.4810    4.6200 H       2  LIG2        0.0268
     36    H       30.2690    2.8580    6.1580 H       2  LIG2        0.0233
     37    H       31.0560    4.0300    5.1050 H       2  LIG2        0.0233
     38    H       31.0120    2.3320    4.6490 H       2  LIG2        0.0233
     39    H       23.9110    2.6970    4.9370 H       2  LIG2        0.0257
     40    H       23.4100    2.3290    3.2920 H       2  LIG2        0.0257
     41    H       24.2520    3.8260    3.6350 H       2  LIG2        0.0257
     42    H       25.2180    1.8200    1.7430 H       2  LIG2        0.2102
@<TRIPOS>BOND
     1    30    12    1
     2    42     1    1
     3    18     4    1
     4    28    12    1
     5    12    29    1
     6    12     3    1
     7    17     2    1
     8     1     9    1
     9     4     2    1
    10     4     3    1
    11     4     7    1
    12    26    11    1
    13     2     3    1
    14     2     5    1
    15     3    13    1
    16    40    16    1
    17    23     8    1
    18    24    10    1
    19    41    16    1
    20     9    11    1
    21     9    16    1
    22     9     6    1
    23    11     7    1
    24    11    27    1
    25    16    39    1
    26    21     7    1
    27     7    22    1
    28     5     8    1
    29     5     6    1
    30     5    19    1
    31     8    14    1
    32     8    15    1
    33    10     6    1
    34    10    14    1
    35    10    25    1
    36     6    20    1
    37    31    13    1
    38    35    14    1
    39    13    33    1
    40    13    32    1
    41    38    15    1
    42    14    34    1
    43    37    15    1
    44    15    36    1
@<TRIPOS>MOLECULE
11996452_7_run_11.pdb
 42 44 0 0 0
SMALL
GASTEIGER

@<TRIPOS>ATOM
      1    O       30.2830    1.0050    2.7150 O.3     2  LIG2       -0.3886
      2    C       29.2230    2.3840    5.1040 C.3     2  LIG2       -0.0289
      3    C       29.5700    2.5450    6.5780 C.3     2  LIG2       -0.0284
      4    C       30.3040    1.5140    5.7560 C.3     2  LIG2       -0.0319
      5    C       27.9130    1.7040    4.6020 C.3     2  LIG2       -0.0294
      6    C       28.0390    0.5590    3.5360 C.3     2  LIG2       -0.0090
      7    C       30.0440   -0.0020    5.8080 C.3     2  LIG2       -0.0468
      8    C       26.9180    2.7410    4.0250 C.3     2  LIG2       -0.0404
      9    C       29.4550   -0.0380    3.2050 C.3     2  LIG2        0.0664
     10    C       27.2350    1.0650    2.3230 C.3     2  LIG2       -0.0471
     11    C       30.1700   -0.6920    4.4320 C.3     2  LIG2       -0.0237
     12    C       30.3490    3.8180    6.9580 C.3     2  LIG2       -0.0593
     13    C       28.5990    2.1160    7.7030 C.3     2  LIG2       -0.0593
     14    C       26.1860    2.0130    2.8970 C.3     2  LIG2       -0.0498
     15    C       25.9810    3.3490    5.0840 C.3     2  LIG2       -0.0621
     16    C       29.3880   -1.0890    2.0690 C.3     2  LIG2       -0.0358
     17    H       29.5840    3.1390    4.4030 H       2  LIG2        0.0312
     18    H       31.3490    1.7290    5.5320 H       2  LIG2        0.0309
     19    H       27.4190    1.2310    5.4490 H       2  LIG2        0.0310
     20    H       27.4660   -0.2880    3.9230 H       2  LIG2        0.0331
     21    H       30.7500   -0.4580    6.5020 H       2  LIG2        0.0269
     22    H       29.0600   -0.2270    6.2130 H       2  LIG2        0.0269
     23    H       27.4710    3.5590    3.5580 H       2  LIG2        0.0301
     24    H       27.8800    1.5980    1.6220 H       2  LIG2        0.0269
     25    H       26.7630    0.2490    1.7730 H       2  LIG2        0.0269
     26    H       31.2280   -0.8360    4.2050 H       2  LIG2        0.0293
     27    H       29.7740   -1.7000    4.5680 H       2  LIG2        0.0293
     28    H       30.9350    3.6630    7.8640 H       2  LIG2        0.0235
     29    H       29.6720    4.6540    7.1340 H       2  LIG2        0.0235
     30    H       31.0430    4.1250    6.1730 H       2  LIG2        0.0235
     31    H       29.1420    1.9560    8.6350 H       2  LIG2        0.0235
     32    H       28.0530    1.1980    7.5040 H       2  LIG2        0.0235
     33    H       27.8550    2.8930    7.8850 H       2  LIG2        0.0235
     34    H       25.3320    1.4510    3.2820 H       2  LIG2        0.0268
     35    H       25.8120    2.7010    2.1370 H       2  LIG2        0.0268
     36    H       25.3800    2.5820    5.5770 H       2  LIG2        0.0233
     37    H       25.2950    4.0680    4.6350 H       2  LIG2        0.0233
     38    H       26.5470    3.8720    5.8550 H       2  LIG2        0.0233
     39    H       28.7260   -1.9140    2.3320 H       2  LIG2        0.0257
     40    H       30.3700   -1.5140    1.8550 H       2  LIG2        0.0257
     41    H       29.0200   -0.6630    1.1350 H       2  LIG2        0.0257
     42    H       31.1900    0.6910    2.7020 H       2  LIG2        0.2102
@<TRIPOS>BOND
     1    41    16    1
     2    24    10    1
     3    25    10    1
     4    40    16    1
     5    16    39    1
     6    16     9    1
     7    35    14    1
     8    10    14    1
     9    10     6    1
    10    42     1    1
    11     1     9    1
    12    14    34    1
    13    14     8    1
    14     9     6    1
    15     9    11    1
    16     6    20    1
    17     6     5    1
    18    23     8    1
    19     8     5    1
    20     8    15    1
    21    26    11    1
    22    17     2    1
    23    11    27    1
    24    11     7    1
    25     5     2    1
    26     5    19    1
    27    37    15    1
    28    15    36    1
    29    15    38    1
    30     2     4    1
    31     2     3    1
    32    18     4    1
    33     4     7    1
    34     4     3    1
    35     7    22    1
    36     7    21    1
    37    30    12    1
    38     3    12    1
    39     3    13    1
    40    12    29    1
    41    12    28    1
    42    32    13    1
    43    13    33    1
    44    13    31    1
@<TRIPOS>MOLECULE
11996452_7_run_8.pdb
 42 44 0 0 0
SMALL
GASTEIGER

@<TRIPOS>ATOM
      1    O       23.3400    3.5190    2.5530 O.3     2  LIG2       -0.3886
      2    C       26.2110    2.9080    2.8910 C.3     2  LIG2       -0.0289
      3    C       27.0910    1.7240    3.2720 C.3     2  LIG2       -0.0284
      4    C       25.5960    1.6260    3.4650 C.3     2  LIG2       -0.0319
      5    C       26.1310    4.2200    3.7300 C.3     2  LIG2       -0.0294
      6    C       24.7100    4.7440    4.1430 C.3     2  LIG2       -0.0090
      7    C       24.8730    1.7420    4.8170 C.3     2  LIG2       -0.0468
      8    C       26.8500    5.3940    3.0200 C.3     2  LIG2       -0.0404
      9    C       23.4540    3.8230    3.9340 C.3     2  LIG2        0.0664
     10    C       24.6140    6.1470    3.5110 C.3     2  LIG2       -0.0471
     11    C       23.5170    2.4760    4.7260 C.3     2  LIG2       -0.0237
     12    C       27.6980    0.9250    2.1050 C.3     2  LIG2       -0.0593
     13    C       28.0440    1.7670    4.4890 C.3     2  LIG2       -0.0593
     14    C       26.0530    6.6430    3.4000 C.3     2  LIG2       -0.0498
     15    C       28.3490    5.4880    3.3540 C.3     2  LIG2       -0.0621
     16    C       22.1380    4.5450    4.3140 C.3     2  LIG2       -0.0358
     17    H       26.0210    3.0890    1.8320 H       2  LIG2        0.0312
     18    H       25.0650    0.9560    2.7880 H       2  LIG2        0.0309
     19    H       26.6460    4.0610    4.6750 H       2  LIG2        0.0310
     20    H       24.7480    4.9210    5.2210 H       2  LIG2        0.0331
     21    H       24.7110    0.7420    5.2190 H       2  LIG2        0.0269
     22    H       25.4860    2.2510    5.5590 H       2  LIG2        0.0269
     23    H       26.7540    5.2820    1.9380 H       2  LIG2        0.0301
     24    H       24.1550    6.0990    2.5220 H       2  LIG2        0.0269
     25    H       24.0120    6.8290    4.1140 H       2  LIG2        0.0269
     26    H       22.7680    1.7860    4.3340 H       2  LIG2        0.0293
     27    H       23.2110    2.6650    5.7550 H       2  LIG2        0.0293
     28    H       27.9080   -0.1030    2.4010 H       2  LIG2        0.0235
     29    H       28.6310    1.3740    1.7660 H       2  LIG2        0.0235
     30    H       27.0280    0.8820    1.2440 H       2  LIG2        0.0235
     31    H       28.2880    0.7560    4.8170 H       2  LIG2        0.0235
     32    H       27.6460    2.2840    5.3580 H       2  LIG2        0.0235
     33    H       28.9790    2.2620    4.2260 H       2  LIG2        0.0235
     34    H       26.3920    7.0500    4.3540 H       2  LIG2        0.0268
     35    H       26.1450    7.4330    2.6530 H       2  LIG2        0.0268
     36    H       28.5150    5.6230    4.4240 H       2  LIG2        0.0233
     37    H       28.8140    6.3300    2.8390 H       2  LIG2        0.0233
     38    H       28.8760    4.5840    3.0490 H       2  LIG2        0.0233
     39    H       22.1510    4.8690    5.3550 H       2  LIG2        0.0257
     40    H       21.2700    3.8960    4.1850 H       2  LIG2        0.0257
     41    H       21.9620    5.4300    3.7010 H       2  LIG2        0.0257
     42    H       22.5970    2.9230    2.4340 H       2  LIG2        0.2102
@<TRIPOS>BOND
     1    30    12    1
     2    29    12    1
     3    17     2    1
     4    23     8    1
     5    12    28    1
     6    12     3    1
     7    42     1    1
     8    24    10    1
     9     1     9    1
    10    35    14    1
    11    18     4    1
    12    37    15    1
    13     2     3    1
    14     2     4    1
    15     2     5    1
    16     8    15    1
    17     8    14    1
    18     8     5    1
    19    38    15    1
    20     3     4    1
    21     3    13    1
    22    15    36    1
    23    14    10    1
    24    14    34    1
    25     4     7    1
    26    10    25    1
    27    10     6    1
    28    41    16    1
    29     5     6    1
    30     5    19    1
    31     9     6    1
    32     9    16    1
    33     9    11    1
    34     6    20    1
    35    40    16    1
    36    33    13    1
    37    16    39    1
    38    26    11    1
    39    13    31    1
    40    13    32    1
    41    11     7    1
    42    11    27    1
    43     7    21    1
    44     7    22    1
