@<TRIPOS>MOLECULE
11996452_11_run_24.pdb
 42 44 0 0 0
SMALL
GASTEIGER

@<TRIPOS>ATOM
      1    O       22.4790    3.8410    3.5260 O.3     2  LIG2       -0.3886
      2    C       26.9070    2.8810    2.9810 C.3     2  LIG2       -0.0289
      3    C       27.7530    1.7630    3.5620 C.3     2  LIG2       -0.0284
      4    C       26.3300    1.4670    3.1410 C.3     2  LIG2       -0.0319
      5    C       26.2870    4.0220    3.8300 C.3     2  LIG2       -0.0294
      6    C       24.8330    4.3160    3.3750 C.3     2  LIG2       -0.0090
      7    C       25.1670    1.2210    4.1310 C.3     2  LIG2       -0.0468
      8    C       27.0460    5.3820    3.8190 C.3     2  LIG2       -0.0404
      9    C       23.7290    3.4460    4.0680 C.3     2  LIG2        0.0664
     10    C       24.6830    5.8430    3.5020 C.3     2  LIG2       -0.0471
     11    C       23.8490    1.9270    3.7380 C.3     2  LIG2       -0.0237
     12    C       28.8740    1.2160    2.6600 C.3     2  LIG2       -0.0593
     13    C       28.1720    1.7650    5.0520 C.3     2  LIG2       -0.0593
     14    C       26.0730    6.3940    3.2010 C.3     2  LIG2       -0.0498
     15    C       28.4310    5.3890    3.1390 C.3     2  LIG2       -0.0621
     16    C       23.5950    3.6540    5.5980 C.3     2  LIG2       -0.0358
     17    H       27.1020    3.1960    1.9560 H       2  LIG2        0.0312
     18    H       26.2210    0.8440    2.2510 H       2  LIG2        0.0309
     19    H       26.2570    3.7200    4.8730 H       2  LIG2        0.0310
     20    H       24.7680    4.1090    2.3040 H       2  LIG2        0.0331
     21    H       24.9790    0.1470    4.1460 H       2  LIG2        0.0269
     22    H       25.4280    1.4720    5.1570 H       2  LIG2        0.0269
     23    H       27.2080    5.6850    4.8550 H       2  LIG2        0.0301
     24    H       23.9410    6.2400    2.8070 H       2  LIG2        0.0269
     25    H       24.3780    6.1360    4.5060 H       2  LIG2        0.0269
     26    H       23.7040    1.7740    2.6650 H       2  LIG2        0.0293
     27    H       23.0280    1.3920    4.2180 H       2  LIG2        0.0293
     28    H       29.1220    0.1870    2.9210 H       2  LIG2        0.0235
     29    H       29.7810    1.8140    2.7570 H       2  LIG2        0.0235
     30    H       28.5940    1.2240    1.6050 H       2  LIG2        0.0235
     31    H       28.4200    0.7560    5.3820 H       2  LIG2        0.0235
     32    H       27.4140    2.1390    5.7350 H       2  LIG2        0.0235
     33    H       29.0570    2.3850    5.1990 H       2  LIG2        0.0235
     34    H       26.2030    7.3930    3.6190 H       2  LIG2        0.0268
     35    H       26.2240    6.4720    2.1230 H       2  LIG2        0.0268
     36    H       28.3660    5.1580    2.0750 H       2  LIG2        0.0233
     37    H       29.1000    4.6610    3.6000 H       2  LIG2        0.0233
     38    H       28.9030    6.3680    3.2290 H       2  LIG2        0.0233
     39    H       24.4980    3.3770    6.1410 H       2  LIG2        0.0257
     40    H       22.7850    3.0500    6.0120 H       2  LIG2        0.0257
     41    H       23.3680    4.6880    5.8570 H       2  LIG2        0.0257
     42    H       21.8060    3.2340    3.8430 H       2  LIG2        0.2102
@<TRIPOS>BOND
     1    30    12    1
     2    17     2    1
     3    36    15    1
     4    35    14    1
     5    18     4    1
     6    20     6    1
     7    12    29    1
     8    12    28    1
     9    12     3    1
    10    26    11    1
    11    24    10    1
    12     2     4    1
    13     2     3    1
    14     2     5    1
    15    15    38    1
    16    15    37    1
    17    15     8    1
    18     4     3    1
    19     4     7    1
    20    14    10    1
    21    14    34    1
    22    14     8    1
    23     6    10    1
    24     6     5    1
    25     6     9    1
    26    10    25    1
    27     1    42    1
    28     1     9    1
    29     3    13    1
    30    11     9    1
    31    11     7    1
    32    11    27    1
    33     8     5    1
    34     8    23    1
    35     5    19    1
    36     9    16    1
    37     7    21    1
    38     7    22    1
    39    13    33    1
    40    13    31    1
    41    13    32    1
    42    16    41    1
    43    16    40    1
    44    16    39    1
@<TRIPOS>MOLECULE
11996452_11_run_18.pdb
 42 44 0 0 0
SMALL
GASTEIGER

@<TRIPOS>ATOM
      1    O       30.1600    0.6360    5.9180 O.3     2  LIG2       -0.3886
      2    C       26.2140    1.8820    3.9970 C.3     2  LIG2       -0.0289
      3    C       25.3860    1.2110    2.9160 C.3     2  LIG2       -0.0284
      4    C       26.0750    0.3540    3.9560 C.3     2  LIG2       -0.0319
      5    C       27.6170    2.4950    3.7500 C.3     2  LIG2       -0.0294
      6    C       28.5800    2.1480    4.9170 C.3     2  LIG2       -0.0090
      7    C       27.3190   -0.5210    3.6720 C.3     2  LIG2       -0.0468
      8    C       27.6740    4.0400    3.5640 C.3     2  LIG2       -0.0404
      9    C       29.3450    0.7890    4.7670 C.3     2  LIG2        0.0664
     10    C       29.4460    3.4070    5.0990 C.3     2  LIG2       -0.0471
     11    C       28.4000   -0.4510    4.7750 C.3     2  LIG2       -0.0237
     12    C       23.8580    1.3560    3.0370 C.3     2  LIG2       -0.0593
     13    C       25.8430    1.2120    1.4380 C.3     2  LIG2       -0.0593
     14    C       28.5270    4.5660    4.7250 C.3     2  LIG2       -0.0498
     15    C       26.3180    4.7660    3.4380 C.3     2  LIG2       -0.0621
     16    C       30.3200    0.7150    3.5650 C.3     2  LIG2       -0.0358
     17    H       25.6890    2.3810    4.8130 H       2  LIG2        0.0312
     18    H       25.4170   -0.1300    4.6810 H       2  LIG2        0.0309
     19    H       28.0360    2.0810    2.8370 H       2  LIG2        0.0310
     20    H       27.9860    2.0740    5.8320 H       2  LIG2        0.0331
     21    H       26.9770   -1.5540    3.6050 H       2  LIG2        0.0269
     22    H       27.7670   -0.3120    2.7030 H       2  LIG2        0.0269
     23    H       28.2230    4.2480    2.6430 H       2  LIG2        0.0301
     24    H       29.8120    3.5070    6.1220 H       2  LIG2        0.0269
     25    H       30.3150    3.3980    4.4420 H       2  LIG2        0.0269
     26    H       27.8880   -0.5140    5.7380 H       2  LIG2        0.0293
     27    H       29.0030   -1.3590    4.7100 H       2  LIG2        0.0293
     28    H       23.3450    0.5300    2.5450 H       2  LIG2        0.0235
     29    H       23.5170    2.2850    2.5770 H       2  LIG2        0.0235
     30    H       23.5270    1.3710    4.0760 H       2  LIG2        0.0235
     31    H       25.3730    0.3940    0.8910 H       2  LIG2        0.0235
     32    H       26.9150    1.1070    1.2960 H       2  LIG2        0.0235
     33    H       25.5530    2.1430    0.9500 H       2  LIG2        0.0235
     34    H       29.0990    5.4510    4.4430 H       2  LIG2        0.0268
     35    H       27.9010    4.8420    5.5750 H       2  LIG2        0.0268
     36    H       25.7170    4.6700    4.3430 H       2  LIG2        0.0233
     37    H       25.7360    4.3720    2.6050 H       2  LIG2        0.0233
     38    H       26.4640    5.8320    3.2580 H       2  LIG2        0.0233
     39    H       29.8130    0.8140    2.6060 H       2  LIG2        0.0257
     40    H       30.8490   -0.2400    3.5400 H       2  LIG2        0.0257
     41    H       31.0870    1.4880    3.6050 H       2  LIG2        0.0257
     42    H       30.6810   -0.1650    5.8180 H       2  LIG2        0.2102
@<TRIPOS>BOND
     1    31    13    1
     2    33    13    1
     3    32    13    1
     4    13     3    1
     5    28    12    1
     6    29    12    1
     7    37    15    1
     8    39    16    1
     9    23     8    1
    10    22     7    1
    11    19     5    1
    12     3    12    1
    13     3     4    1
    14     3     2    1
    15    12    30    1
    16    38    15    1
    17    15     8    1
    18    15    36    1
    19    40    16    1
    20     8     5    1
    21     8    14    1
    22    16    41    1
    23    16     9    1
    24    21     7    1
    25     7     4    1
    26     7    11    1
    27     5     2    1
    28     5     6    1
    29     4     2    1
    30     4    18    1
    31     2    17    1
    32    25    10    1
    33    34    14    1
    34    27    11    1
    35    14    10    1
    36    14    35    1
    37     9    11    1
    38     9     6    1
    39     9     1    1
    40    11    26    1
    41     6    10    1
    42     6    20    1
    43    10    24    1
    44    42     1    1
@<TRIPOS>MOLECULE
11996452_11_run_6.pdb
 42 44 0 0 0
SMALL
GASTEIGER

@<TRIPOS>ATOM
      1    O       30.7730    3.7350    5.1050 O.3     2  LIG2       -0.3886
      2    C       27.4200    1.4280    3.0430 C.3     2  LIG2       -0.0289
      3    C       25.9200    1.6550    3.0450 C.3     2  LIG2       -0.0284
      4    C       26.8460    2.8510    3.0060 C.3     2  LIG2       -0.0319
      5    C       28.2270    0.9990    4.2970 C.3     2  LIG2       -0.0294
      6    C       29.5620    1.7860    4.3850 C.3     2  LIG2       -0.0090
      7    C       27.0810    3.8040    4.2010 C.3     2  LIG2       -0.0468
      8    C       28.5870   -0.5120    4.4030 C.3     2  LIG2       -0.0404
      9    C       29.4770    3.1600    5.1320 C.3     2  LIG2        0.0664
     10    C       30.5810    0.7700    4.9320 C.3     2  LIG2       -0.0471
     11    C       28.5630    4.1950    4.4090 C.3     2  LIG2       -0.0237
     12    C       25.1750    1.3090    1.7410 C.3     2  LIG2       -0.0593
     13    C       25.0610    1.3380    4.2920 C.3     2  LIG2       -0.0593
     14    C       30.1200   -0.5760    4.3790 C.3     2  LIG2       -0.0498
     15    C       27.9310   -1.4490    3.3670 C.3     2  LIG2       -0.0621
     16    C       29.1040    3.0680    6.6340 C.3     2  LIG2       -0.0358
     17    H       27.8890    1.0850    2.1200 H       2  LIG2        0.0312
     18    H       26.8710    3.3990    2.0620 H       2  LIG2        0.0309
     19    H       27.6500    1.2190    5.1900 H       2  LIG2        0.0310
     20    H       29.8920    2.0030    3.3660 H       2  LIG2        0.0331
     21    H       26.5210    4.7170    4.0000 H       2  LIG2        0.0269
     22    H       26.6670    3.4210    5.1310 H       2  LIG2        0.0269
     23    H       28.2670   -0.8660    5.3860 H       2  LIG2        0.0301
     24    H       31.5990    1.0000    4.6120 H       2  LIG2        0.0269
     25    H       30.5800    0.7420    6.0200 H       2  LIG2        0.0269
     26    H       28.9800    4.4280    3.4270 H       2  LIG2        0.0293
     27    H       28.5850    5.1370    4.9610 H       2  LIG2        0.0293
     28    H       24.2560    1.8870    1.6490 H       2  LIG2        0.0235
     29    H       24.9120    0.2510    1.7120 H       2  LIG2        0.0235
     30    H       25.7790    1.5150    0.8560 H       2  LIG2        0.0235
     31    H       24.1270    1.8990    4.2680 H       2  LIG2        0.0235
     32    H       25.5390    1.5680    5.2400 H       2  LIG2        0.0235
     33    H       24.8060    0.2780    4.3200 H       2  LIG2        0.0235
     34    H       30.5040   -1.4030    4.9770 H       2  LIG2        0.0268
     35    H       30.4880   -0.7130    3.3610 H       2  LIG2        0.0268
     36    H       28.2430   -1.2140    2.3480 H       2  LIG2        0.0233
     37    H       26.8440   -1.3830    3.4080 H       2  LIG2        0.0233
     38    H       28.2020   -2.4880    3.5560 H       2  LIG2        0.0233
     39    H       28.1130    2.6430    6.7950 H       2  LIG2        0.0257
     40    H       29.0990    4.0540    7.1040 H       2  LIG2        0.0257
     41    H       29.8100    2.4620    7.2000 H       2  LIG2        0.0257
     42    H       31.0210    3.8830    4.1890 H       2  LIG2        0.2102
@<TRIPOS>BOND
     1    30    12    1
     2    28    12    1
     3    29    12    1
     4    12     3    1
     5    18     4    1
     6    17     2    1
     7    36    15    1
     8     4     2    1
     9     4     3    1
    10     4     7    1
    11     2     3    1
    12     2     5    1
    13     3    13    1
    14    35    14    1
    15    20     6    1
    16    15    37    1
    17    15    38    1
    18    15     8    1
    19    26    11    1
    20    21     7    1
    21    42     1    1
    22     7    11    1
    23     7    22    1
    24    31    13    1
    25    13    33    1
    26    13    32    1
    27     5     6    1
    28     5     8    1
    29     5    19    1
    30    14     8    1
    31    14    10    1
    32    14    34    1
    33     6    10    1
    34     6     9    1
    35     8    23    1
    36    11    27    1
    37    11     9    1
    38    24    10    1
    39    10    25    1
    40     1     9    1
    41     9    16    1
    42    16    39    1
    43    16    40    1
    44    16    41    1
@<TRIPOS>MOLECULE
11996452_11_run_6.pdb
 42 44 0 0 0
SMALL
GASTEIGER

@<TRIPOS>ATOM
      1    O       27.2910   -1.3540    4.0800 O.3     2  LIG2       -0.3886
      2    C       27.2880    3.1630    4.7240 C.3     2  LIG2       -0.0289
      3    C       27.0310    4.2990    3.7520 C.3     2  LIG2       -0.0284
      4    C       26.2080    3.0330    3.6410 C.3     2  LIG2       -0.0319
      5    C       28.5200    2.2230    4.6440 C.3     2  LIG2       -0.0294
      6    C       28.1040    0.7510    4.9110 C.3     2  LIG2       -0.0090
      7    C       26.3760    1.9870    2.5130 C.3     2  LIG2       -0.0468
      8    C       29.6960    2.5410    5.6130 C.3     2  LIG2       -0.0404
      9    C       27.6380   -0.0480    3.6470 C.3     2  LIG2        0.0664
     10    C       29.2760    0.1510    5.7090 C.3     2  LIG2       -0.0471
     11    C       26.3360    0.5220    3.0060 C.3     2  LIG2       -0.0237
     12    C       26.3220    5.5410    4.3230 C.3     2  LIG2       -0.0593
     13    C       28.0720    4.6840    2.6730 C.3     2  LIG2       -0.0593
     14    C       29.8230    1.3170    6.5280 C.3     2  LIG2       -0.0498
     15    C       29.6010    3.8680    6.3960 C.3     2  LIG2       -0.0621
     16    C       28.7260   -0.2540    2.5630 C.3     2  LIG2       -0.0358
     17    H       26.9200    3.2650    5.7460 H       2  LIG2        0.0312
     18    H       25.1610    3.1230    3.9340 H       2  LIG2        0.0309
     19    H       28.9470    2.2740    3.6470 H       2  LIG2        0.0310
     20    H       27.2600    0.7610    5.6050 H       2  LIG2        0.0331
     21    H       25.5480    2.1270    1.8180 H       2  LIG2        0.0269
     22    H       27.2710    2.1510    1.9180 H       2  LIG2        0.0269
     23    H       30.6130    2.5960    5.0220 H       2  LIG2        0.0301
     24    H       28.9540   -0.6680    6.3530 H       2  LIG2        0.0269
     25    H       30.0550   -0.2360    5.0530 H       2  LIG2        0.0269
     26    H       25.5120    0.4400    3.7190 H       2  LIG2        0.0293
     27    H       26.0500   -0.1070    2.1610 H       2  LIG2        0.0293
     28    H       25.7870    6.0810    3.5430 H       2  LIG2        0.0235
     29    H       27.0410    6.2270    4.7750 H       2  LIG2        0.0235
     30    H       25.5960    5.2810    5.0950 H       2  LIG2        0.0235
     31    H       27.5940    5.2180    1.8520 H       2  LIG2        0.0235
     32    H       28.5990    3.8420    2.2330 H       2  LIG2        0.0235
     33    H       28.8320    5.3410    3.0950 H       2  LIG2        0.0235
     34    H       30.8550    1.1380    6.8320 H       2  LIG2        0.0268
     35    H       29.2350    1.4480    7.4380 H       2  LIG2        0.0268
     36    H       28.7430    3.8840    7.0700 H       2  LIG2        0.0233
     37    H       29.5130    4.7190    5.7200 H       2  LIG2        0.0233
     38    H       30.4930    4.0250    7.0030 H       2  LIG2        0.0233
     39    H       29.0780    0.6850    2.1380 H       2  LIG2        0.0257
     40    H       28.3490   -0.8500    1.7290 H       2  LIG2        0.0257
     41    H       29.5990   -0.7820    2.9460 H       2  LIG2        0.0257
     42    H       28.0570   -1.7470    4.5060 H       2  LIG2        0.2102
@<TRIPOS>BOND
     1    40    16    1
     2    21     7    1
     3    31    13    1
     4    22     7    1
     5    39    16    1
     6    27    11    1
     7    32    13    1
     8     7    11    1
     9     7     4    1
    10    16    41    1
    11    16     9    1
    12    13    33    1
    13    13     3    1
    14    11     9    1
    15    11    26    1
    16    28    12    1
    17     4     3    1
    18     4    18    1
    19     4     2    1
    20     9     1    1
    21     9     6    1
    22    19     5    1
    23     3    12    1
    24     3     2    1
    25     1    42    1
    26    12    29    1
    27    12    30    1
    28     5     2    1
    29     5     6    1
    30     5     8    1
    31     2    17    1
    32     6    20    1
    33     6    10    1
    34    23     8    1
    35    25    10    1
    36     8    15    1
    37     8    14    1
    38    10    24    1
    39    10    14    1
    40    37    15    1
    41    15    38    1
    42    15    36    1
    43    14    34    1
    44    14    35    1
@<TRIPOS>MOLECULE
11996452_11_run_9.pdb
 42 44 0 0 0
SMALL
GASTEIGER

@<TRIPOS>ATOM
      1    O       31.3370    0.7030    5.3420 O.3     2  LIG2       -0.3886
      2    C       27.8670    3.0270    3.5040 C.3     2  LIG2       -0.0289
      3    C       26.9570    4.0820    4.1050 C.3     2  LIG2       -0.0284
      4    C       28.4240    4.0760    4.4770 C.3     2  LIG2       -0.0319
      5    C       27.8750    1.5420    3.9490 C.3     2  LIG2       -0.0294
      6    C       29.3290    1.0080    4.0530 C.3     2  LIG2       -0.0090
      7    C       28.9670    3.6320    5.8550 C.3     2  LIG2       -0.0468
      8    C       27.0930    0.5450    3.0450 C.3     2  LIG2       -0.0404
      9    C       30.0270    1.2390    5.4360 C.3     2  LIG2        0.0664
     10    C       29.2490   -0.4480    3.5590 C.3     2  LIG2       -0.0471
     11    C       30.2330    2.7470    5.7740 C.3     2  LIG2       -0.0237
     12    C       26.4840    5.1990    3.1560 C.3     2  LIG2       -0.0593
     13    C       25.8620    3.7070    5.1320 C.3     2  LIG2       -0.0593
     14    C       28.1400   -0.4400    2.5100 C.3     2  LIG2       -0.0498
     15    C       26.2280    1.1650    1.9270 C.3     2  LIG2       -0.0621
     16    C       29.3710    0.5040    6.6320 C.3     2  LIG2       -0.0358
     17    H       28.1720    3.1420    2.4630 H       2  LIG2        0.0312
     18    H       29.0160    4.9000    4.0730 H       2  LIG2        0.0309
     19    H       27.4180    1.4570    4.9310 H       2  LIG2        0.0310
     20    H       29.9330    1.5310    3.3060 H       2  LIG2        0.0331
     21    H       29.2270    4.5360    6.4060 H       2  LIG2        0.0269
     22    H       28.2120    3.1400    6.4650 H       2  LIG2        0.0269
     23    H       26.4130   -0.0250    3.6820 H       2  LIG2        0.0301
     24    H       30.1940   -0.7880    3.1330 H       2  LIG2        0.0269
     25    H       28.9900   -1.1340    4.3650 H       2  LIG2        0.0269
     26    H       30.9000    3.1990    5.0370 H       2  LIG2        0.0293
     27    H       30.7590    2.8290    6.7270 H       2  LIG2        0.0293
     28    H       26.2410    6.1060    3.7070 H       2  LIG2        0.0235
     29    H       25.5940    4.8920    2.6050 H       2  LIG2        0.0235
     30    H       27.2440    5.4610    2.4180 H       2  LIG2        0.0235
     31    H       25.5830    4.5740    5.7300 H       2  LIG2        0.0235
     32    H       26.1460    2.9240    5.8310 H       2  LIG2        0.0235
     33    H       24.9640    3.3570    4.6210 H       2  LIG2        0.0235
     34    H       27.7260   -1.4380    2.3640 H       2  LIG2        0.0268
     35    H       28.5330   -0.1080    1.5480 H       2  LIG2        0.0268
     36    H       26.8310    1.7070    1.1970 H       2  LIG2        0.0233
     37    H       25.4930    1.8590    2.3370 H       2  LIG2        0.0233
     38    H       25.6800    0.3930    1.3860 H       2  LIG2        0.0233
     39    H       28.3490    0.8340    6.8180 H       2  LIG2        0.0257
     40    H       29.9250    0.6750    7.5570 H       2  LIG2        0.0257
     41    H       29.3400   -0.5760    6.4880 H       2  LIG2        0.0257
     42    H       31.7120    0.9640    4.4970 H       2  LIG2        0.2102
@<TRIPOS>BOND
     1    36    15    1
     2    38    15    1
     3    35    14    1
     4    15    37    1
     5    15     8    1
     6    34    14    1
     7    30    12    1
     8    17     2    1
     9    14     8    1
    10    14    10    1
    11    29    12    1
    12     8    23    1
    13     8     5    1
    14    24    10    1
    15    12    28    1
    16    12     3    1
    17    20     6    1
    18     2     5    1
    19     2     3    1
    20     2     4    1
    21    10     6    1
    22    10    25    1
    23     5     6    1
    24     5    19    1
    25     6     9    1
    26    18     4    1
    27     3     4    1
    28     3    13    1
    29     4     7    1
    30    42     1    1
    31    33    13    1
    32    26    11    1
    33    13    31    1
    34    13    32    1
    35     1     9    1
    36     9    11    1
    37     9    16    1
    38    11     7    1
    39    11    27    1
    40     7    21    1
    41     7    22    1
    42    41    16    1
    43    16    39    1
    44    16    40    1
@<TRIPOS>MOLECULE
11996452_11_run_20.pdb
 42 44 0 0 0
SMALL
GASTEIGER

@<TRIPOS>ATOM
      1    O       26.8250    4.8570    2.7770 O.3     2  LIG2       -0.3886
      2    C       28.5500    0.7290    3.6740 C.3     2  LIG2       -0.0289
      3    C       27.9170   -0.6470    3.5810 C.3     2  LIG2       -0.0284
      4    C       27.5870    0.3880    2.5270 C.3     2  LIG2       -0.0319
      5    C       28.1140    1.8100    4.6960 C.3     2  LIG2       -0.0294
      6    C       28.0550    3.2080    4.0250 C.3     2  LIG2       -0.0090
      7    C       26.2270    1.1180    2.4260 C.3     2  LIG2       -0.0468
      8    C       29.0020    1.9580    5.9670 C.3     2  LIG2       -0.0404
      9    C       26.6910    3.5620    3.3410 C.3     2  LIG2        0.0664
     10    C       28.5550    4.1840    5.1050 C.3     2  LIG2       -0.0471
     11    C       26.3490    2.6330    2.1360 C.3     2  LIG2       -0.0237
     12    C       28.8460   -1.8000    3.1570 C.3     2  LIG2       -0.0593
     13    C       26.8620   -1.1170    4.6110 C.3     2  LIG2       -0.0593
     14    C       29.5720    3.3810    5.9110 C.3     2  LIG2       -0.0498
     15    C       30.0900    0.8830    6.1720 C.3     2  LIG2       -0.0621
     16    C       25.4810    3.6610    4.3040 C.3     2  LIG2       -0.0358
     17    H       29.5990    0.8340    3.3920 H       2  LIG2        0.0312
     18    H       28.0020    0.2010    1.5350 H       2  LIG2        0.0309
     19    H       27.1200    1.5760    5.0670 H       2  LIG2        0.0310
     20    H       28.8160    3.2360    3.2390 H       2  LIG2        0.0331
     21    H       25.6790    0.6650    1.6010 H       2  LIG2        0.0269
     22    H       25.5990    0.9600    3.3000 H       2  LIG2        0.0269
     23    H       28.3490    1.9080    6.8410 H       2  LIG2        0.0301
     24    H       29.0100    5.0760    4.6710 H       2  LIG2        0.0269
     25    H       27.7460    4.5150    5.7560 H       2  LIG2        0.0269
     26    H       27.1030    2.7560    1.3550 H       2  LIG2        0.0293
     27    H       25.4110    2.9630    1.6860 H       2  LIG2        0.0293
     28    H       28.2820   -2.6070    2.6900 H       2  LIG2        0.0235
     29    H       29.3730   -2.2140    4.0180 H       2  LIG2        0.0235
     30    H       29.6030   -1.4760    2.4410 H       2  LIG2        0.0235
     31    H       26.2510   -1.9180    4.1970 H       2  LIG2        0.0235
     32    H       26.1760   -0.3410    4.9420 H       2  LIG2        0.0235
     33    H       27.3490   -1.5030    5.5070 H       2  LIG2        0.0235
     34    H       29.7120    3.8050    6.9060 H       2  LIG2        0.0268
     35    H       30.5430    3.3930    5.4130 H       2  LIG2        0.0268
     36    H       30.8340    0.8970    5.3740 H       2  LIG2        0.0233
     37    H       29.6560   -0.1160    6.2090 H       2  LIG2        0.0233
     38    H       30.6210    1.0430    7.1120 H       2  LIG2        0.0233
     39    H       25.2640    2.7170    4.8040 H       2  LIG2        0.0257
     40    H       24.5710    3.9470    3.7730 H       2  LIG2        0.0257
     41    H       25.6300    4.4100    5.0820 H       2  LIG2        0.0257
     42    H       27.6080    4.8660    2.2210 H       2  LIG2        0.2102
@<TRIPOS>BOND
     1    26    11    1
     2    18     4    1
     3    21     7    1
     4    27    11    1
     5    11     7    1
     6    11     9    1
     7    42     1    1
     8     7     4    1
     9     7    22    1
    10    30    12    1
    11     4     3    1
    12     4     2    1
    13    28    12    1
    14     1     9    1
    15    12     3    1
    16    12    29    1
    17    20     6    1
    18     9     6    1
    19     9    16    1
    20    17     2    1
    21     3     2    1
    22     3    13    1
    23     2     5    1
    24    40    16    1
    25     6     5    1
    26     6    10    1
    27    31    13    1
    28    16    39    1
    29    16    41    1
    30    13    32    1
    31    13    33    1
    32    24    10    1
    33     5    19    1
    34     5     8    1
    35    10    25    1
    36    10    14    1
    37    36    15    1
    38    35    14    1
    39    14     8    1
    40    14    34    1
    41     8    15    1
    42     8    23    1
    43    15    37    1
    44    15    38    1
@<TRIPOS>MOLECULE
11996452_11_run_3.pdb
 42 44 0 0 0
SMALL
GASTEIGER

@<TRIPOS>ATOM
      1    O       27.2630    6.9010    4.1050 O.3     2  LIG2       -0.3886
      2    C       26.2240    2.4710    4.4540 C.3     2  LIG2       -0.0289
      3    C       26.7640    1.2690    3.7020 C.3     2  LIG2       -0.0284
      4    C       27.7130    2.3830    4.0870 C.3     2  LIG2       -0.0319
      5    C       25.3750    3.5890    3.7950 C.3     2  LIG2       -0.0294
      6    C       25.8190    4.9870    4.3030 C.3     2  LIG2       -0.0090
      7    C       28.3160    3.3930    3.0830 C.3     2  LIG2       -0.0468
      8    C       23.8350    3.5020    4.0050 C.3     2  LIG2       -0.0404
      9    C       26.9880    5.6490    3.4970 C.3     2  LIG2        0.0664
     10    C       24.5150    5.7980    4.4110 C.3     2  LIG2       -0.0471
     11    C       28.3250    4.8540    3.5920 C.3     2  LIG2       -0.0237
     12    C       26.8720   -0.0440    4.5000 C.3     2  LIG2       -0.0593
     13    C       26.3810    1.0070    2.2260 C.3     2  LIG2       -0.0593
     14    C       23.4490    4.7690    4.7790 C.3     2  LIG2       -0.0498
     15    C       23.3040    2.2110    4.6650 C.3     2  LIG2       -0.0621
     16    C       26.6610    5.9770    2.0180 C.3     2  LIG2       -0.0358
     17    H       25.9930    2.3560    5.5140 H       2  LIG2        0.0312
     18    H       28.4300    2.1410    4.8730 H       2  LIG2        0.0309
     19    H       25.5190    3.5640    2.7190 H       2  LIG2        0.0310
     20    H       26.1720    4.8740    5.3320 H       2  LIG2        0.0331
     21    H       29.3490    3.0950    2.9070 H       2  LIG2        0.0269
     22    H       27.8410    3.3470    2.1050 H       2  LIG2        0.0269
     23    H       23.3580    3.5680    3.0250 H       2  LIG2        0.0301
     24    H       24.5830    6.5830    5.1660 H       2  LIG2        0.0269
     25    H       24.2560    6.2750    3.4670 H       2  LIG2        0.0269
     26    H       28.6660    4.8350    4.6300 H       2  LIG2        0.0293
     27    H       29.1000    5.3930    3.0440 H       2  LIG2        0.0293
     28    H       27.6400   -0.6950    4.0830 H       2  LIG2        0.0235
     29    H       25.9270   -0.5880    4.4860 H       2  LIG2        0.0235
     30    H       27.1270    0.1310    5.5460 H       2  LIG2        0.0235
     31    H       27.1220    0.3700    1.7440 H       2  LIG2        0.0235
     32    H       26.2950    1.9020    1.6150 H       2  LIG2        0.0235
     33    H       25.4190    0.4960    2.1660 H       2  LIG2        0.0235
     34    H       22.4510    5.1210    4.5160 H       2  LIG2        0.0268
     35    H       23.4560    4.5860    5.8550 H       2  LIG2        0.0268
     36    H       23.6780    2.0890    5.6820 H       2  LIG2        0.0233
     37    H       23.5920    1.3290    4.0920 H       2  LIG2        0.0233
     38    H       22.2150    2.2230    4.7190 H       2  LIG2        0.0233
     39    H       26.4350    5.0880    1.4310 H       2  LIG2        0.0257
     40    H       27.5010    6.4700    1.5250 H       2  LIG2        0.0257
     41    H       25.8100    6.6520    1.9220 H       2  LIG2        0.0257
     42    H       27.3760    6.7620    5.0480 H       2  LIG2        0.2102
@<TRIPOS>BOND
     1    39    16    1
     2    40    16    1
     3    32    13    1
     4    31    13    1
     5    41    16    1
     6    16     9    1
     7    22     7    1
     8    33    13    1
     9    13     3    1
    10    19     5    1
    11    21     7    1
    12    23     8    1
    13    27    11    1
    14     7    11    1
    15     7     4    1
    16    25    10    1
    17     9    11    1
    18     9     1    1
    19     9     6    1
    20    11    26    1
    21     3     4    1
    22     3     2    1
    23     3    12    1
    24     5     8    1
    25     5     6    1
    26     5     2    1
    27     8    15    1
    28     8    14    1
    29    28    12    1
    30     4     2    1
    31     4    18    1
    32    37    15    1
    33     1    42    1
    34     6    10    1
    35     6    20    1
    36    10    14    1
    37    10    24    1
    38     2    17    1
    39    29    12    1
    40    12    30    1
    41    34    14    1
    42    15    38    1
    43    15    36    1
    44    14    35    1
@<TRIPOS>MOLECULE
11996452_11_run_3.pdb
 42 44 0 0 0
SMALL
GASTEIGER

@<TRIPOS>ATOM
      1    O       28.8490   -0.9910    1.8190 O.3     2  LIG2       -0.3886
      2    C       29.1010    2.3580    4.9080 C.3     2  LIG2       -0.0289
      3    C       29.6310    2.3510    6.3300 C.3     2  LIG2       -0.0284
      4    C       30.3530    1.5450    5.2710 C.3     2  LIG2       -0.0319
      5    C       27.8350    1.5840    4.4580 C.3     2  LIG2       -0.0294
      6    C       28.0690    0.9000    3.0840 C.3     2  LIG2       -0.0090
      7    C       30.3170    0.0020    5.1830 C.3     2  LIG2       -0.0468
      8    C       26.5260    2.4180    4.3270 C.3     2  LIG2       -0.0404
      9    C       28.6990   -0.5330    3.1530 C.3     2  LIG2        0.0664
     10    C       26.7220    1.0220    2.3500 C.3     2  LIG2       -0.0471
     11    C       30.1410   -0.5400    3.7450 C.3     2  LIG2       -0.0237
     12    C       30.3180    3.6430    6.8090 C.3     2  LIG2       -0.0593
     13    C       28.8490    1.6650    7.4750 C.3     2  LIG2       -0.0593
     14    C       26.1270    2.3360    2.8490 C.3     2  LIG2       -0.0498
     15    C       26.5800    3.8670    4.8550 C.3     2  LIG2       -0.0621
     16    C       27.8230   -1.6010    3.8550 C.3     2  LIG2       -0.0358
     17    H       29.2760    3.2440    4.2960 H       2  LIG2        0.0312
     18    H       31.3290    1.9290    4.9700 H       2  LIG2        0.0309
     19    H       27.6090    0.8080    5.1830 H       2  LIG2        0.0310
     20    H       28.7640    1.5210    2.5140 H       2  LIG2        0.0331
     21    H       31.2700   -0.3650    5.5630 H       2  LIG2        0.0269
     22    H       29.5670   -0.4390    5.8370 H       2  LIG2        0.0269
     23    H       25.7460    1.9100    4.8980 H       2  LIG2        0.0301
     24    H       26.8470    1.0320    1.2650 H       2  LIG2        0.0269
     25    H       26.0520    0.1980    2.5930 H       2  LIG2        0.0269
     26    H       30.8060    0.0350    3.0960 H       2  LIG2        0.0293
     27    H       30.5300   -1.5600    3.7230 H       2  LIG2        0.0293
     28    H       31.0350    3.4360    7.6030 H       2  LIG2        0.0235
     29    H       29.5860    4.3550    7.1940 H       2  LIG2        0.0235
     30    H       30.8610    4.1430    6.0050 H       2  LIG2        0.0235
     31    H       29.5160    1.4160    8.3000 H       2  LIG2        0.0235
     32    H       28.3470    0.7430    7.1910 H       2  LIG2        0.0235
     33    H       28.0790    2.3320    7.8640 H       2  LIG2        0.0235
     34    H       25.0450    2.3580    2.7150 H       2  LIG2        0.0268
     35    H       26.5410    3.1760    2.2860 H       2  LIG2        0.0268
     36    H       27.2920    4.4780    4.3000 H       2  LIG2        0.0233
     37    H       26.8640    3.8930    5.9080 H       2  LIG2        0.0233
     38    H       25.6050    4.3480    4.7690 H       2  LIG2        0.0233
     39    H       27.6370   -1.3690    4.9030 H       2  LIG2        0.0257
     40    H       28.3010   -2.5830    3.8350 H       2  LIG2        0.0257
     41    H       26.8530   -1.7230    3.3740 H       2  LIG2        0.0257
     42    H       29.3870   -0.3570    1.3390 H       2  LIG2        0.2102
@<TRIPOS>BOND
     1    24    10    1
     2    42     1    1
     3     1     9    1
     4    35    14    1
     5    10    25    1
     6    10    14    1
     7    10     6    1
     8    20     6    1
     9    34    14    1
    10    14     8    1
    11     6     9    1
    12     6     5    1
    13    26    11    1
    14     9    11    1
    15     9    16    1
    16    41    16    1
    17    27    11    1
    18    11     7    1
    19    40    16    1
    20    16    39    1
    21    17     2    1
    22    36    15    1
    23     8     5    1
    24     8    15    1
    25     8    23    1
    26     5     2    1
    27     5    19    1
    28    38    15    1
    29    15    37    1
    30     2     4    1
    31     2     3    1
    32    18     4    1
    33     7     4    1
    34     7    21    1
    35     7    22    1
    36     4     3    1
    37    30    12    1
    38     3    12    1
    39     3    13    1
    40    12    29    1
    41    12    28    1
    42    32    13    1
    43    13    33    1
    44    13    31    1
@<TRIPOS>MOLECULE
11996452_11_run_8.pdb
 42 44 0 0 0
SMALL
GASTEIGER

@<TRIPOS>ATOM
      1    O       28.3510    2.7930    7.5460 O.3     2  LIG2       -0.3886
      2    C       28.3340    0.1060    3.8580 C.3     2  LIG2       -0.0289
      3    C       29.4820   -0.5110    3.0810 C.3     2  LIG2       -0.0284
      4    C       29.5730   -0.4290    4.5900 C.3     2  LIG2       -0.0319
      5    C       28.0550    1.6310    3.9140 C.3     2  LIG2       -0.0294
      6    C       27.6740    2.0660    5.3550 C.3     2  LIG2       -0.0090
      7    C       30.4980    0.5510    5.3490 C.3     2  LIG2       -0.0468
      8    C       26.9350    2.1640    2.9730 C.3     2  LIG2       -0.0404
      9    C       28.8830    2.4350    6.2800 C.3     2  LIG2        0.0664
     10    C       26.5980    3.1490    5.1670 C.3     2  LIG2       -0.0471
     11    C       29.8280    1.2280    6.5670 C.3     2  LIG2       -0.0237
     12    C       29.2260   -1.9040    2.4750 C.3     2  LIG2       -0.0593
     13    C       30.3890    0.3480    2.1680 C.3     2  LIG2       -0.0593
     14    C       25.8550    2.7410    3.8970 C.3     2  LIG2       -0.0498
     15    C       26.3700    1.1630    1.9430 C.3     2  LIG2       -0.0621
     16    C       29.7070    3.6660    5.8220 C.3     2  LIG2       -0.0358
     17    H       27.4230   -0.4800    3.9840 H       2  LIG2        0.0312
     18    H       29.4960   -1.3800    5.1200 H       2  LIG2        0.0309
     19    H       28.9520    2.1720    3.6280 H       2  LIG2        0.0310
     20    H       27.1580    1.2290    5.8330 H       2  LIG2        0.0331
     21    H       31.3480   -0.0250    5.7140 H       2  LIG2        0.0269
     22    H       30.9320    1.3080    4.7000 H       2  LIG2        0.0269
     23    H       27.3460    2.9980    2.4010 H       2  LIG2        0.0301
     24    H       25.9200    3.2050    6.0200 H       2  LIG2        0.0269
     25    H       27.0380    4.1370    5.0350 H       2  LIG2        0.0269
     26    H       29.2770    0.4550    7.1090 H       2  LIG2        0.0293
     27    H       30.6180    1.5490    7.2480 H       2  LIG2        0.0293
     28    H       30.1580   -2.4530    2.3440 H       2  LIG2        0.0235
     29    H       28.7450   -1.8220    1.4990 H       2  LIG2        0.0235
     30    H       28.5760   -2.5130    3.1040 H       2  LIG2        0.0235
     31    H       31.3490   -0.1410    2.0100 H       2  LIG2        0.0235
     32    H       30.6050    1.3420    2.5520 H       2  LIG2        0.0235
     33    H       29.9250    0.4870    1.1910 H       2  LIG2        0.0235
     34    H       25.3430    3.5910    3.4470 H       2  LIG2        0.0268
     35    H       25.0980    1.9900    4.1280 H       2  LIG2        0.0268
     36    H       25.8770    0.3160    2.4230 H       2  LIG2        0.0233
     37    H       27.1590    0.7720    1.3000 H       2  LIG2        0.0233
     38    H       25.6330    1.6430    1.2980 H       2  LIG2        0.0233
     39    H       30.1810    3.5160    4.8530 H       2  LIG2        0.0257
     40    H       30.5080    3.8930    6.5280 H       2  LIG2        0.0257
     41    H       29.0990    4.5670    5.7480 H       2  LIG2        0.0257
     42    H       27.7710    2.0870    7.8420 H       2  LIG2        0.2102
@<TRIPOS>BOND
     1    33    13    1
     2    38    15    1
     3    37    15    1
     4    29    12    1
     5    15    36    1
     6    15     8    1
     7    31    13    1
     8    13    32    1
     9    13     3    1
    10    28    12    1
    11    23     8    1
    12    12     3    1
    13    12    30    1
    14     8    14    1
    15     8     5    1
    16     3     2    1
    17     3     4    1
    18    34    14    1
    19    19     5    1
    20     2     5    1
    21     2    17    1
    22     2     4    1
    23    14    35    1
    24    14    10    1
    25     5     6    1
    26     4    18    1
    27     4     7    1
    28    22     7    1
    29    39    16    1
    30    25    10    1
    31    10     6    1
    32    10    24    1
    33     7    21    1
    34     7    11    1
    35     6    20    1
    36     6     9    1
    37    41    16    1
    38    16     9    1
    39    16    40    1
    40     9    11    1
    41     9     1    1
    42    11    26    1
    43    11    27    1
    44     1    42    1
@<TRIPOS>MOLECULE
11996452_11_run_23.pdb
 42 44 0 0 0
SMALL
GASTEIGER

@<TRIPOS>ATOM
      1    O       25.6810    4.8320    3.8660 O.3     2  LIG2       -0.3886
      2    C       28.1360    1.2910    5.3650 C.3     2  LIG2       -0.0289
      3    C       29.6350    1.1360    5.5500 C.3     2  LIG2       -0.0284
      4    C       28.9840    2.4600    5.8860 C.3     2  LIG2       -0.0319
      5    C       27.4520    1.4440    3.9810 C.3     2  LIG2       -0.0294
      6    C       26.3380    2.5250    4.0380 C.3     2  LIG2       -0.0090
      7    C       29.1320    3.7400    5.0290 C.3     2  LIG2       -0.0468
      8    C       26.8030    0.1610    3.3850 C.3     2  LIG2       -0.0404
      9    C       26.8180    3.9910    3.7620 C.3     2  LIG2        0.0664
     10    C       25.2210    1.9860    3.1270 C.3     2  LIG2       -0.0471
     11    C       27.8130    4.5230    4.8390 C.3     2  LIG2       -0.0237
     12    C       30.0900    0.2640    6.7350 C.3     2  LIG2       -0.0593
     13    C       30.5830    0.9850    4.3360 C.3     2  LIG2       -0.0593
     14    C       25.3050    0.4680    3.2690 C.3     2  LIG2       -0.0498
     15    C       27.0880   -1.1610    4.1280 C.3     2  LIG2       -0.0621
     16    C       27.3810    4.2390    2.3400 C.3     2  LIG2       -0.0358
     17    H       27.4750    0.8250    6.0970 H       2  LIG2        0.0312
     18    H       28.9360    2.7070    6.9480 H       2  LIG2        0.0309
     19    H       28.1870    1.7610    3.2480 H       2  LIG2        0.0310
     20    H       25.9150    2.5180    5.0460 H       2  LIG2        0.0331
     21    H       29.8350    4.3930    5.5460 H       2  LIG2        0.0269
     22    H       29.5890    3.5470    4.0610 H       2  LIG2        0.0269
     23    H       27.1830    0.0330    2.3690 H       2  LIG2        0.0301
     24    H       24.2380    2.3570    3.4220 H       2  LIG2        0.0269
     25    H       25.3770    2.2680    2.0860 H       2  LIG2        0.0269
     26    H       27.3130    4.5620    5.8100 H       2  LIG2        0.0293
     27    H       28.0690    5.5580    4.6050 H       2  LIG2        0.0293
     28    H       31.0860    0.5500    7.0720 H       2  LIG2        0.0235
     29    H       30.1200   -0.7900    6.4560 H       2  LIG2        0.0235
     30    H       29.4200    0.3520    7.5910 H       2  LIG2        0.0235
     31    H       31.5990    1.2720    4.6050 H       2  LIG2        0.0235
     32    H       30.3090    1.5840    3.4710 H       2  LIG2        0.0235
     33    H       30.6110   -0.0520    4.0010 H       2  LIG2        0.0235
     34    H       24.8480   -0.0350    2.4160 H       2  LIG2        0.0268
     35    H       24.7700    0.1430    4.1630 H       2  LIG2        0.0268
     36    H       26.6860   -1.1550    5.1410 H       2  LIG2        0.0233
     37    H       28.1590   -1.3530    4.1930 H       2  LIG2        0.0233
     38    H       26.6370   -2.0050    3.6050 H       2  LIG2        0.0233
     39    H       28.2730    3.6500    2.1320 H       2  LIG2        0.0257
     40    H       27.6610    5.2860    2.2000 H       2  LIG2        0.0257
     41    H       26.6550    4.0100    1.5610 H       2  LIG2        0.0257
     42    H       25.3010    4.7230    4.7400 H       2  LIG2        0.2102
@<TRIPOS>BOND
     1    41    16    1
     2    25    10    1
     3    39    16    1
     4    40    16    1
     5    16     9    1
     6    23     8    1
     7    34    14    1
     8    10    14    1
     9    10    24    1
    10    10     6    1
    11    19     5    1
    12    14     8    1
    13    14    35    1
    14     8     5    1
    15     8    15    1
    16    32    13    1
    17    38    15    1
    18     9     1    1
    19     9     6    1
    20     9    11    1
    21     1    42    1
    22     5     6    1
    23     5     2    1
    24    33    13    1
    25     6    20    1
    26    22     7    1
    27    15    37    1
    28    15    36    1
    29    13    31    1
    30    13     3    1
    31    27    11    1
    32    11     7    1
    33    11    26    1
    34     7    21    1
    35     7     4    1
    36     2     3    1
    37     2     4    1
    38     2    17    1
    39     3     4    1
    40     3    12    1
    41     4    18    1
    42    29    12    1
    43    12    28    1
    44    12    30    1
