@<TRIPOS>MOLECULE
11996452_6_run_5.pdb
 42 44 0 0 0
SMALL
GASTEIGER

@<TRIPOS>ATOM
      1    O       28.8090   -0.4310    1.3780 O.3     2  LIG2       -0.3886
      2    C       28.5540    0.6280    5.7560 C.3     2  LIG2       -0.0289
      3    C       29.4890    1.3640    6.7280 C.3     2  LIG2       -0.0284
      4    C       30.0610    0.7030    5.4890 C.3     2  LIG2       -0.0319
      5    C       27.5570    1.1950    4.6900 C.3     2  LIG2       -0.0294
      6    C       27.5940    0.5280    3.2760 C.3     2  LIG2       -0.0090
      7    C       30.5190    1.4460    4.2170 C.3     2  LIG2       -0.0468
      8    C       27.3620    2.7270    4.4810 C.3     2  LIG2       -0.0404
      9    C       28.9290   -0.1370    2.7620 C.3     2  LIG2        0.0664
     10    C       26.9540    1.5940    2.3560 C.3     2  LIG2       -0.0471
     11    C       30.2450    0.6980    2.8940 C.3     2  LIG2       -0.0237
     12    C       29.5990    2.8980    6.8990 C.3     2  LIG2       -0.0593
     13    C       29.7370    0.6410    8.0680 C.3     2  LIG2       -0.0593
     14    C       27.3030    2.9460    2.9630 C.3     2  LIG2       -0.0498
     15    C       26.1520    3.3150    5.2340 C.3     2  LIG2       -0.0621
     16    C       29.1230   -1.5620    3.3530 C.3     2  LIG2       -0.0358
     17    H       28.1850   -0.3390    6.1040 H       2  LIG2        0.0312
     18    H       30.6740   -0.1810    5.6670 H       2  LIG2        0.0309
     19    H       26.5950    0.8670    5.0900 H       2  LIG2        0.0310
     20    H       26.8720   -0.2910    3.3010 H       2  LIG2        0.0331
     21    H       30.0690    2.4290    4.1360 H       2  LIG2        0.0269
     22    H       31.5890    1.6430    4.2950 H       2  LIG2        0.0269
     23    H       28.2200    3.2910    4.8090 H       2  LIG2        0.0301
     24    H       27.2870    1.5470    1.3190 H       2  LIG2        0.0269
     25    H       25.8710    1.4650    2.3370 H       2  LIG2        0.0269
     26    H       30.2710    1.4530    2.1060 H       2  LIG2        0.0293
     27    H       31.0990    0.0480    2.6970 H       2  LIG2        0.0293
     28    H       30.3770    3.1470    7.6220 H       2  LIG2        0.0235
     29    H       28.6670    3.3130    7.2800 H       2  LIG2        0.0235
     30    H       29.8810    3.4450    6.0050 H       2  LIG2        0.0235
     31    H       30.7100    0.9060    8.4850 H       2  LIG2        0.0235
     32    H       29.7210   -0.4440    7.9630 H       2  LIG2        0.0235
     33    H       28.9750    0.9070    8.8000 H       2  LIG2        0.0235
     34    H       26.5740    3.7050    2.6730 H       2  LIG2        0.0268
     35    H       28.2720    3.2820    2.5920 H       2  LIG2        0.0268
     36    H       25.2160    2.8670    4.8980 H       2  LIG2        0.0233
     37    H       26.0770    4.3920    5.0800 H       2  LIG2        0.0233
     38    H       26.2370    3.1430    6.3080 H       2  LIG2        0.0233
     39    H       29.2370   -1.5720    4.4320 H       2  LIG2        0.0257
     40    H       30.0060   -2.0570    2.9450 H       2  LIG2        0.0257
     41    H       28.2710   -2.2070    3.1310 H       2  LIG2        0.0257
     42    H       28.0190   -0.9620    1.2490 H       2  LIG2        0.2102
@<TRIPOS>BOND
     1    42     1    1
     2    24    10    1
     3     1     9    1
     4    26    11    1
     5    25    10    1
     6    10    14    1
     7    10     6    1
     8    35    14    1
     9    34    14    1
    10    27    11    1
    11     9    11    1
    12     9     6    1
    13     9    16    1
    14    11     7    1
    15    40    16    1
    16    14     8    1
    17    41    16    1
    18     6    20    1
    19     6     5    1
    20    16    39    1
    21    21     7    1
    22     7    22    1
    23     7     4    1
    24     8     5    1
    25     8    23    1
    26     8    15    1
    27     5    19    1
    28     5     2    1
    29    36    15    1
    30    37    15    1
    31    15    38    1
    32     4    18    1
    33     4     2    1
    34     4     3    1
    35     2    17    1
    36     2     3    1
    37    30    12    1
    38     3    12    1
    39     3    13    1
    40    12    29    1
    41    12    28    1
    42    32    13    1
    43    13    31    1
    44    13    33    1
@<TRIPOS>MOLECULE
11996452_6_run_16.pdb
 42 44 0 0 0
SMALL
GASTEIGER

@<TRIPOS>ATOM
      1    O       29.8180   -1.7210    3.8550 O.3     2  LIG2       -0.3886
      2    C       28.5200    2.5960    3.6710 C.3     2  LIG2       -0.0289
      3    C       27.1560    3.2990    3.7280 C.3     2  LIG2       -0.0284
      4    C       27.2390    1.8520    3.2810 C.3     2  LIG2       -0.0319
      5    C       29.4140    2.0300    4.8260 C.3     2  LIG2       -0.0294
      6    C       30.0100    0.6000    4.6120 C.3     2  LIG2       -0.0090
      7    C       26.8380    0.6330    4.1380 C.3     2  LIG2       -0.0468
      8    C       28.9900    2.1420    6.3220 C.3     2  LIG2       -0.0404
      9    C       29.2490   -0.4310    3.6900 C.3     2  LIG2        0.0664
     10    C       30.3440    0.1270    6.0450 C.3     2  LIG2       -0.0471
     11    C       27.7170   -0.6200    3.9350 C.3     2  LIG2       -0.0237
     12    C       26.3720    3.6610    5.0110 C.3     2  LIG2       -0.0593
     13    C       26.9150    4.3460    2.6220 C.3     2  LIG2       -0.0593
     14    C       29.3220    0.7860    6.9610 C.3     2  LIG2       -0.0498
     15    C       29.6140    3.3400    7.0640 C.3     2  LIG2       -0.0621
     16    C       29.5360   -0.1710    2.1840 C.3     2  LIG2       -0.0358
     17    H       29.1650    2.8900    2.8400 H       2  LIG2        0.0312
     18    H       27.0320    1.6720    2.2250 H       2  LIG2        0.0309
     19    H       30.2940    2.6740    4.7610 H       2  LIG2        0.0310
     20    H       30.9790    0.7370    4.1280 H       2  LIG2        0.0331
     21    H       26.8370    0.8640    5.1970 H       2  LIG2        0.0269
     22    H       25.8010    0.3770    3.9150 H       2  LIG2        0.0269
     23    H       27.9230    2.2460    6.4320 H       2  LIG2        0.0301
     24    H       30.3280   -0.9540    6.1750 H       2  LIG2        0.0269
     25    H       31.3490    0.4550    6.3170 H       2  LIG2        0.0269
     26    H       27.5690   -1.2420    4.8200 H       2  LIG2        0.0293
     27    H       27.2930   -1.1920    3.1080 H       2  LIG2        0.0293
     28    H       25.4110    4.1100    4.7580 H       2  LIG2        0.0235
     29    H       26.9170    4.3930    5.6050 H       2  LIG2        0.0235
     30    H       26.1150    2.8220    5.6500 H       2  LIG2        0.0235
     31    H       25.8520    4.4480    2.3990 H       2  LIG2        0.0235
     32    H       27.4120    4.0840    1.6870 H       2  LIG2        0.0235
     33    H       27.2890    5.3240    2.9240 H       2  LIG2        0.0235
     34    H       29.7090    0.8810    7.9770 H       2  LIG2        0.0268
     35    H       28.4250    0.1680    7.0230 H       2  LIG2        0.0268
     36    H       30.7030    3.2730    7.0880 H       2  LIG2        0.0233
     37    H       29.2640    3.3910    8.0950 H       2  LIG2        0.0233
     38    H       29.3490    4.2810    6.5810 H       2  LIG2        0.0233
     39    H       29.1760    0.7910    1.8340 H       2  LIG2        0.0257
     40    H       29.0730   -0.9250    1.5440 H       2  LIG2        0.0257
     41    H       30.6060   -0.1910    1.9700 H       2  LIG2        0.0257
     42    H       29.4790   -2.1000    4.6700 H       2  LIG2        0.2102
@<TRIPOS>BOND
     1    40    16    1
     2    32    13    1
     3    39    16    1
     4    41    16    1
     5    16     9    1
     6    18     4    1
     7    31    13    1
     8    13    33    1
     9    13     3    1
    10    17     2    1
    11    27    11    1
    12     4     2    1
    13     4     3    1
    14     4     7    1
    15     2     3    1
    16     2     5    1
    17     9     1    1
    18     9    11    1
    19     9     6    1
    20     3    12    1
    21     1    42    1
    22    22     7    1
    23    11     7    1
    24    11    26    1
    25    20     6    1
    26     7    21    1
    27     6     5    1
    28     6    10    1
    29    28    12    1
    30    19     5    1
    31     5     8    1
    32    12    29    1
    33    12    30    1
    34    10    24    1
    35    10    25    1
    36    10    14    1
    37     8    23    1
    38     8    14    1
    39     8    15    1
    40    38    15    1
    41    14    35    1
    42    14    34    1
    43    15    36    1
    44    15    37    1
@<TRIPOS>MOLECULE
11996452_6_run_2.pdb
 42 44 0 0 0
SMALL
GASTEIGER

@<TRIPOS>ATOM
      1    O       26.6980    5.8620    4.1590 O.3     2  LIG2       -0.3886
      2    C       27.5570    1.7120    2.6110 C.3     2  LIG2       -0.0289
      3    C       28.1770    0.4520    3.2340 C.3     2  LIG2       -0.0284
      4    C       28.5040    1.8160    3.8100 C.3     2  LIG2       -0.0319
      5    C       26.1040    2.2860    2.7290 C.3     2  LIG2       -0.0294
      6    C       25.9810    3.8200    3.0140 C.3     2  LIG2       -0.0090
      7    C       27.9280    2.3880    5.1220 C.3     2  LIG2       -0.0468
      8    C       25.0010    1.5660    3.5610 C.3     2  LIG2       -0.0404
      9    C       27.1390    4.5650    3.7850 C.3     2  LIG2        0.0664
     10    C       24.5570    3.9680    3.5960 C.3     2  LIG2       -0.0471
     11    C       27.6610    3.9090    5.1050 C.3     2  LIG2       -0.0237
     12    C       27.4370   -0.5910    4.1050 C.3     2  LIG2       -0.0593
     13    C       29.2780   -0.2180    2.3880 C.3     2  LIG2       -0.0593
     14    C       24.2590    2.6680    4.3310 C.3     2  LIG2       -0.0498
     15    C       24.0700    0.6670    2.7250 C.3     2  LIG2       -0.0621
     16    C       28.3230    4.9140    2.8410 C.3     2  LIG2       -0.0358
     17    H       27.9770    2.0150    1.6510 H       2  LIG2        0.0312
     18    H       29.5260    2.1630    3.6480 H       2  LIG2        0.0309
     19    H       25.7470    2.1990    1.7010 H       2  LIG2        0.0310
     20    H       25.9390    4.3130    2.0400 H       2  LIG2        0.0331
     21    H       27.0050    1.8970    5.4080 H       2  LIG2        0.0269
     22    H       28.6190    2.1600    5.9340 H       2  LIG2        0.0269
     23    H       25.4220    0.9300    4.3240 H       2  LIG2        0.0301
     24    H       24.4330    4.8180    4.2660 H       2  LIG2        0.0269
     25    H       23.8390    4.1070    2.7860 H       2  LIG2        0.0269
     26    H       26.9470    4.1010    5.9090 H       2  LIG2        0.0293
     27    H       28.5800    4.4100    5.4120 H       2  LIG2        0.0293
     28    H       28.1300   -1.3570    4.4550 H       2  LIG2        0.0235
     29    H       26.6660   -1.1000    3.5290 H       2  LIG2        0.0235
     30    H       26.9890   -0.2020    5.0140 H       2  LIG2        0.0235
     31    H       29.9880   -0.7550    3.0200 H       2  LIG2        0.0235
     32    H       29.8530    0.5040    1.8070 H       2  LIG2        0.0235
     33    H       28.8490   -0.9320    1.6850 H       2  LIG2        0.0235
     34    H       23.1840    2.4900    4.3920 H       2  LIG2        0.0268
     35    H       24.6280    2.7270    5.3560 H       2  LIG2        0.0268
     36    H       23.5220    1.2440    1.9780 H       2  LIG2        0.0233
     37    H       23.3360    0.1630    3.3550 H       2  LIG2        0.0233
     38    H       24.6350   -0.1040    2.2010 H       2  LIG2        0.0233
     39    H       28.8190    4.0420    2.4260 H       2  LIG2        0.0257
     40    H       29.0950    5.4950    3.3500 H       2  LIG2        0.0257
     41    H       27.9940    5.5100    1.9880 H       2  LIG2        0.0257
     42    H       27.3540    6.2470    4.7460 H       2  LIG2        0.2102
@<TRIPOS>BOND
     1    17     2    1
     2    33    13    1
     3    19     5    1
     4    32    13    1
     5    36    15    1
     6    41    16    1
     7    20     6    1
     8    38    15    1
     9    13    31    1
    10    13     3    1
    11    39    16    1
    12     2     5    1
    13     2     3    1
    14     2     4    1
    15    15    37    1
    16    15     8    1
    17     5     6    1
    18     5     8    1
    19    25    10    1
    20    16    40    1
    21    16     9    1
    22     6    10    1
    23     6     9    1
    24     3     4    1
    25     3    12    1
    26    29    12    1
    27     8    23    1
    28     8    14    1
    29    10    24    1
    30    10    14    1
    31    18     4    1
    32     9     1    1
    33     9    11    1
    34     4     7    1
    35    12    28    1
    36    12    30    1
    37     1    42    1
    38    14    34    1
    39    14    35    1
    40    11     7    1
    41    11    27    1
    42    11    26    1
    43     7    21    1
    44     7    22    1
@<TRIPOS>MOLECULE
11996452_6_run_9.pdb
 42 44 0 0 0
SMALL
GASTEIGER

@<TRIPOS>ATOM
      1    O       30.9700   -0.1910    4.7720 O.3     2  LIG2       -0.3886
      2    C       27.4800    1.5760    2.5240 C.3     2  LIG2       -0.0289
      3    C       25.9560    1.4330    2.6450 C.3     2  LIG2       -0.0284
      4    C       26.8590    0.3330    3.1680 C.3     2  LIG2       -0.0319
      5    C       28.4810    2.4500    3.3540 C.3     2  LIG2       -0.0294
      6    C       29.7870    1.7410    3.8420 C.3     2  LIG2       -0.0090
      7    C       27.1720    0.0720    4.6550 C.3     2  LIG2       -0.0468
      8    C       27.9970    3.3850    4.5040 C.3     2  LIG2       -0.0404
      9    C       29.7820    0.1830    4.0890 C.3     2  LIG2        0.0664
     10    C       30.2610    2.6250    5.0190 C.3     2  LIG2       -0.0471
     11    C       28.6120   -0.4070    4.9410 C.3     2  LIG2       -0.0237
     12    C       25.0430    2.2070    3.6260 C.3     2  LIG2       -0.0593
     13    C       25.2210    1.1470    1.3200 C.3     2  LIG2       -0.0593
     14    C       29.0030    3.2070    5.6500 C.3     2  LIG2       -0.0498
     15    C       27.8030    4.8540    4.0790 C.3     2  LIG2       -0.0621
     16    C       29.9440   -0.6070    2.7600 C.3     2  LIG2       -0.0358
     17    H       27.8860    1.4350    1.5210 H       2  LIG2        0.0312
     18    H       26.8390   -0.6010    2.6030 H       2  LIG2        0.0309
     19    H       28.8480    3.1460    2.5970 H       2  LIG2        0.0310
     20    H       30.5330    1.8930    3.0590 H       2  LIG2        0.0331
     21    H       26.9910    0.9480    5.2680 H       2  LIG2        0.0269
     22    H       26.4710   -0.6730    5.0330 H       2  LIG2        0.0269
     23    H       27.0520    3.0660    4.9120 H       2  LIG2        0.0301
     24    H       30.8490    2.0950    5.7680 H       2  LIG2        0.0269
     25    H       30.8930    3.4310    4.6450 H       2  LIG2        0.0269
     26    H       28.7970   -0.2010    5.9970 H       2  LIG2        0.0293
     27    H       28.6230   -1.4950    4.8550 H       2  LIG2        0.0293
     28    H       24.0090    1.8730    3.5310 H       2  LIG2        0.0235
     29    H       25.0530    3.2730    3.4060 H       2  LIG2        0.0235
     30    H       25.2730    2.0700    4.6780 H       2  LIG2        0.0235
     31    H       24.2960    0.5930    1.4930 H       2  LIG2        0.0235
     32    H       25.8220    0.5520    0.6310 H       2  LIG2        0.0235
     33    H       24.9650    2.0750    0.8080 H       2  LIG2        0.0235
     34    H       29.2210    4.1410    6.1700 H       2  LIG2        0.0268
     35    H       28.6060    2.5150    6.3960 H       2  LIG2        0.0268
     36    H       28.7390    5.2980    3.7350 H       2  LIG2        0.0233
     37    H       27.4360    5.4590    4.9090 H       2  LIG2        0.0233
     38    H       27.0780    4.9360    3.2690 H       2  LIG2        0.0233
     39    H       29.1230   -0.4600    2.0650 H       2  LIG2        0.0257
     40    H       30.0170   -1.6830    2.9290 H       2  LIG2        0.0257
     41    H       30.8490   -0.3120    2.2250 H       2  LIG2        0.0257
     42    H       31.7230    0.1050    4.2550 H       2  LIG2        0.2102
@<TRIPOS>BOND
     1    32    13    1
     2    33    13    1
     3    13    31    1
     4    13     3    1
     5    17     2    1
     6    39    16    1
     7    41    16    1
     8     2     3    1
     9     2     4    1
    10     2     5    1
    11    19     5    1
    12    18     4    1
    13     3     4    1
    14     3    12    1
    15    16    40    1
    16    16     9    1
    17    20     6    1
    18     4     7    1
    19    38    15    1
    20     5     6    1
    21     5     8    1
    22    29    12    1
    23    28    12    1
    24    12    30    1
    25    36    15    1
    26     6     9    1
    27     6    10    1
    28    15     8    1
    29    15    37    1
    30     9     1    1
    31     9    11    1
    32    42     1    1
    33     8    23    1
    34     8    14    1
    35    25    10    1
    36     7    11    1
    37     7    22    1
    38     7    21    1
    39    27    11    1
    40    11    26    1
    41    10    14    1
    42    10    24    1
    43    14    34    1
    44    14    35    1
@<TRIPOS>MOLECULE
11996452_6_run_10.pdb
 42 44 0 0 0
SMALL
GASTEIGER

@<TRIPOS>ATOM
      1    O       30.7620    1.6410    7.3960 O.3     2  LIG2       -0.3886
      2    C       27.0500    1.9930    4.8560 C.3     2  LIG2       -0.0289
      3    C       26.5050    3.0780    3.9160 C.3     2  LIG2       -0.0284
      4    C       27.4760    3.4560    5.0170 C.3     2  LIG2       -0.0319
      5    C       28.1440    0.8990    4.6080 C.3     2  LIG2       -0.0294
      6    C       29.2220    0.7240    5.7270 C.3     2  LIG2       -0.0090
      7    C       28.9680    3.7870    4.8110 C.3     2  LIG2       -0.0468
      8    C       28.8670    0.7570    3.2340 C.3     2  LIG2       -0.0404
      9    C       29.5940    1.9500    6.6490 C.3     2  LIG2        0.0664
     10    C       30.3940    0.0290    4.9970 C.3     2  LIG2       -0.0471
     11    C       29.9020    3.3110    5.9450 C.3     2  LIG2       -0.0237
     12    C       26.9060    3.2860    2.4360 C.3     2  LIG2       -0.0593
     13    C       25.0270    3.4560    4.1440 C.3     2  LIG2       -0.0593
     14    C       30.3490    0.5180    3.5550 C.3     2  LIG2       -0.0498
     15    C       28.2570   -0.3170    2.3120 C.3     2  LIG2       -0.0621
     16    C       28.5560    2.1440    7.7890 C.3     2  LIG2       -0.0358
     17    H       26.3450    1.6220    5.6020 H       2  LIG2        0.0312
     18    H       27.0550    4.0410    5.8360 H       2  LIG2        0.0309
     19    H       27.5590   -0.0200    4.6850 H       2  LIG2        0.0310
     20    H       28.8340   -0.0290    6.4160 H       2  LIG2        0.0331
     21    H       29.3500    3.3800    3.8820 H       2  LIG2        0.0269
     22    H       29.0730    4.8670    4.6980 H       2  LIG2        0.0269
     23    H       28.8490    1.6770    2.6720 H       2  LIG2        0.0301
     24    H       31.3730    0.2260    5.4330 H       2  LIG2        0.0269
     25    H       30.2570   -1.0530    5.0240 H       2  LIG2        0.0269
     26    H       30.9060    3.2770    5.5190 H       2  LIG2        0.0293
     27    H       29.9370    4.1010    6.6980 H       2  LIG2        0.0293
     28    H       26.4010    4.1600    2.0220 H       2  LIG2        0.0235
     29    H       26.6080    2.4320    1.8300 H       2  LIG2        0.0235
     30    H       27.9600    3.4810    2.2640 H       2  LIG2        0.0235
     31    H       24.8320    4.4860    3.8400 H       2  LIG2        0.0235
     32    H       24.7340    3.3720    5.1910 H       2  LIG2        0.0235
     33    H       24.3660    2.8060    3.5700 H       2  LIG2        0.0235
     34    H       30.8170   -0.2020    2.8820 H       2  LIG2        0.0268
     35    H       30.9100    1.4500    3.4610 H       2  LIG2        0.0268
     36    H       28.3160   -1.3100    2.7610 H       2  LIG2        0.0233
     37    H       28.7780   -0.3570    1.3550 H       2  LIG2        0.0233
     38    H       27.2080   -0.1070    2.1050 H       2  LIG2        0.0233
     39    H       27.5610    2.3920    7.4320 H       2  LIG2        0.0257
     40    H       28.8450    2.9430    8.4750 H       2  LIG2        0.0257
     41    H       28.4460    1.2390    8.3900 H       2  LIG2        0.0257
     42    H       30.6670    0.7560    7.7570 H       2  LIG2        0.2102
@<TRIPOS>BOND
     1    37    15    1
     2    29    12    1
     3    28    12    1
     4    38    15    1
     5    30    12    1
     6    15    36    1
     7    15     8    1
     8    12     3    1
     9    23     8    1
    10    34    14    1
    11     8    14    1
    12     8     5    1
    13    35    14    1
    14    14    10    1
    15    33    13    1
    16    31    13    1
    17    21     7    1
    18     3    13    1
    19     3     2    1
    20     3     4    1
    21    13    32    1
    22     5    19    1
    23     5     2    1
    24     5     6    1
    25    22     7    1
    26     7     4    1
    27     7    11    1
    28     2     4    1
    29     2    17    1
    30    10    25    1
    31    10    24    1
    32    10     6    1
    33     4    18    1
    34    26    11    1
    35     6    20    1
    36     6     9    1
    37    11     9    1
    38    11    27    1
    39     9     1    1
    40     9    16    1
    41     1    42    1
    42    39    16    1
    43    16    41    1
    44    16    40    1
@<TRIPOS>MOLECULE
11996452_6_run_2.pdb
 42 44 0 0 0
SMALL
GASTEIGER

@<TRIPOS>ATOM
      1    O       24.3620    3.3580    3.3530 O.3     2  LIG2       -0.3886
      2    C       27.7660    0.5590    4.3180 C.3     2  LIG2       -0.0289
      3    C       28.7810   -0.2150    3.4640 C.3     2  LIG2       -0.0284
      4    C       27.4540    0.2040    2.8610 C.3     2  LIG2       -0.0319
      5    C       27.7560    2.0610    4.7600 C.3     2  LIG2       -0.0294
      6    C       26.4010    2.8270    4.6010 C.3     2  LIG2       -0.0090
      7    C       27.2560    1.3720    1.8730 C.3     2  LIG2       -0.0468
      8    C       28.8990    3.0430    4.3610 C.3     2  LIG2       -0.0404
      9    C       25.3760    2.3740    3.4900 C.3     2  LIG2        0.0664
     10    C       26.8240    4.3140    4.5850 C.3     2  LIG2       -0.0471
     11    C       25.9330    2.1510    2.0460 C.3     2  LIG2       -0.0237
     12    C       30.0990    0.3490    2.8820 C.3     2  LIG2       -0.0593
     13    C       28.9320   -1.7070    3.8220 C.3     2  LIG2       -0.0593
     14    C       28.2120    4.3560    3.9590 C.3     2  LIG2       -0.0498
     15    C       29.9800    3.2220    5.4440 C.3     2  LIG2       -0.0621
     16    C       24.5390    1.1470    3.9490 C.3     2  LIG2       -0.0358
     17    H       27.2400   -0.0320    5.0700 H       2  LIG2        0.0312
     18    H       26.7550   -0.6070    2.6530 H       2  LIG2        0.0309
     19    H       27.8620    1.9740    5.8440 H       2  LIG2        0.0310
     20    H       25.8600    2.6990    5.5410 H       2  LIG2        0.0331
     21    H       28.0670    2.0890    1.9250 H       2  LIG2        0.0269
     22    H       27.3040    0.9800    0.8570 H       2  LIG2        0.0269
     23    H       29.4170    2.7180    3.4730 H       2  LIG2        0.0301
     24    H       26.1430    4.9670    4.0390 H       2  LIG2        0.0269
     25    H       26.8670    4.6970    5.6050 H       2  LIG2        0.0269
     26    H       26.0860    3.1190    1.5660 H       2  LIG2        0.0293
     27    H       25.1730    1.6490    1.4450 H       2  LIG2        0.0293
     28    H       30.6020   -0.4030    2.2740 H       2  LIG2        0.0235
     29    H       30.7880    0.6250    3.6790 H       2  LIG2        0.0235
     30    H       29.9860    1.1990    2.2160 H       2  LIG2        0.0235
     31    H       29.2440   -2.2920    2.9550 H       2  LIG2        0.0235
     32    H       28.0000   -2.1440    4.1820 H       2  LIG2        0.0235
     33    H       29.6780   -1.8460    4.6050 H       2  LIG2        0.0235
     34    H       28.7630    5.2390    4.2870 H       2  LIG2        0.0268
     35    H       28.1280    4.4210    2.8730 H       2  LIG2        0.0268
     36    H       29.5630    3.6410    6.3610 H       2  LIG2        0.0233
     37    H       30.7710    3.8930    5.1050 H       2  LIG2        0.0233
     38    H       30.4460    2.2680    5.6950 H       2  LIG2        0.0233
     39    H       25.1340    0.2550    4.1210 H       2  LIG2        0.0257
     40    H       23.7770    0.8740    3.2170 H       2  LIG2        0.0257
     41    H       24.0160    1.3470    4.8860 H       2  LIG2        0.0257
     42    H       24.0090    3.5530    4.2240 H       2  LIG2        0.2102
@<TRIPOS>BOND
     1    22     7    1
     2    27    11    1
     3    26    11    1
     4     7    21    1
     5     7    11    1
     6     7     4    1
     7    11     9    1
     8    30    12    1
     9    28    12    1
    10    18     4    1
    11     4     3    1
    12     4     2    1
    13    35    14    1
    14    12     3    1
    15    12    29    1
    16    31    13    1
    17    40    16    1
    18     1     9    1
    19     1    42    1
    20     3    13    1
    21     3     2    1
    22    23     8    1
    23     9    16    1
    24     9     6    1
    25    13    32    1
    26    13    33    1
    27    16    39    1
    28    16    41    1
    29    14    34    1
    30    14     8    1
    31    14    10    1
    32    24    10    1
    33     2     5    1
    34     2    17    1
    35     8     5    1
    36     8    15    1
    37    10     6    1
    38    10    25    1
    39     6     5    1
    40     6    20    1
    41     5    19    1
    42    37    15    1
    43    15    38    1
    44    15    36    1
@<TRIPOS>MOLECULE
11996452_6_run_11.pdb
 42 44 0 0 0
SMALL
GASTEIGER

@<TRIPOS>ATOM
      1    O       22.6300    4.4480    4.2930 O.3     2  LIG2       -0.3886
      2    C       26.7220    2.6090    4.7610 C.3     2  LIG2       -0.0289
      3    C       27.5200    1.5720    3.9570 C.3     2  LIG2       -0.0284
      4    C       26.0060    1.5910    3.8680 C.3     2  LIG2       -0.0319
      5    C       26.5080    4.1390    4.5040 C.3     2  LIG2       -0.0294
      6    C       25.0430    4.6710    4.6410 C.3     2  LIG2       -0.0090
      7    C       25.1920    2.1390    2.6790 C.3     2  LIG2       -0.0468
      8    C       27.1590    4.8660    3.2890 C.3     2  LIG2       -0.0404
      9    C       23.8320    3.6970    4.3730 C.3     2  LIG2        0.0664
     10    C       25.0600    5.9910    3.8360 C.3     2  LIG2       -0.0471
     11    C       23.8730    2.8420    3.0640 C.3     2  LIG2       -0.0237
     12    C       28.3650    1.8550    2.6920 C.3     2  LIG2       -0.0593
     13    C       28.1450    0.4380    4.7930 C.3     2  LIG2       -0.0593
     14    C       26.0780    5.7970    2.7200 C.3     2  LIG2       -0.0498
     15    C       28.4780    5.5900    3.6230 C.3     2  LIG2       -0.0621
     16    C       23.5370    2.7970    5.6060 C.3     2  LIG2       -0.0358
     17    H       26.6590    2.4210    5.8340 H       2  LIG2        0.0312
     18    H       25.4970    0.7460    4.3340 H       2  LIG2        0.0309
     19    H       27.0110    4.5820    5.3660 H       2  LIG2        0.0310
     20    H       24.9220    4.9790    5.6820 H       2  LIG2        0.0331
     21    H       25.7690    2.8330    2.0770 H       2  LIG2        0.0269
     22    H       24.9680    1.3150    2.0010 H       2  LIG2        0.0269
     23    H       27.3880    4.1850    2.4860 H       2  LIG2        0.0301
     24    H       24.0930    6.2740    3.4200 H       2  LIG2        0.0269
     25    H       25.3700    6.8140    4.4810 H       2  LIG2        0.0269
     26    H       23.6040    3.4740    2.2140 H       2  LIG2        0.0293
     27    H       23.0930    2.0800    3.1120 H       2  LIG2        0.0293
     28    H       28.7840    0.9290    2.2960 H       2  LIG2        0.0235
     29    H       29.2050    2.5080    2.9250 H       2  LIG2        0.0235
     30    H       27.8190    2.2800    1.8550 H       2  LIG2        0.0235
     31    H       28.2580   -0.4730    4.2030 H       2  LIG2        0.0235
     32    H       27.5380    0.1790    5.6620 H       2  LIG2        0.0235
     33    H       29.1310    0.7230    5.1610 H       2  LIG2        0.0235
     34    H       26.4790    6.7550    2.3850 H       2  LIG2        0.0268
     35    H       25.5990    5.3350    1.8550 H       2  LIG2        0.0268
     36    H       28.3280    6.3730    4.3680 H       2  LIG2        0.0233
     37    H       28.9080    6.0570    2.7360 H       2  LIG2        0.0233
     38    H       29.2190    4.8930    4.0170 H       2  LIG2        0.0233
     39    H       24.3510    2.1230    5.8550 H       2  LIG2        0.0257
     40    H       22.6540    2.1730    5.4550 H       2  LIG2        0.0257
     41    H       23.3510    3.3920    6.5010 H       2  LIG2        0.0257
     42    H       21.9070    3.8450    4.1030 H       2  LIG2        0.2102
@<TRIPOS>BOND
     1    35    14    1
     2    30    12    1
     3    22     7    1
     4    21     7    1
     5    26    11    1
     6    28    12    1
     7    34    14    1
     8    23     8    1
     9     7    11    1
    10     7     4    1
    11    12    29    1
    12    12     3    1
    13    14     8    1
    14    14    10    1
    15    37    15    1
    16    11    27    1
    17    11     9    1
    18     8    15    1
    19     8     5    1
    20    24    10    1
    21    15    38    1
    22    15    36    1
    23    10    25    1
    24    10     6    1
    25     4     3    1
    26     4    18    1
    27     4     2    1
    28     3     2    1
    29     3    13    1
    30    42     1    1
    31    31    13    1
    32     1     9    1
    33     9     6    1
    34     9    16    1
    35     5     6    1
    36     5     2    1
    37     5    19    1
    38     6    20    1
    39     2    17    1
    40    13    33    1
    41    13    32    1
    42    40    16    1
    43    16    39    1
    44    16    41    1
@<TRIPOS>MOLECULE
11996452_6_run_12.pdb
 42 44 0 0 0
SMALL
GASTEIGER

@<TRIPOS>ATOM
      1    O       24.8570   -0.3490    2.8590 O.3     2  LIG2       -0.3886
      2    C       27.7560    3.1050    2.7140 C.3     2  LIG2       -0.0289
      3    C       27.8750    4.4260    3.4890 C.3     2  LIG2       -0.0284
      4    C       26.5290    3.7350    3.3820 C.3     2  LIG2       -0.0319
      5    C       28.1890    1.6550    3.1180 C.3     2  LIG2       -0.0294
      6    C       27.1480    0.5170    2.8550 C.3     2  LIG2       -0.0090
      7    C       25.8480    2.9360    4.5120 C.3     2  LIG2       -0.0468
      8    C       28.8770    1.3540    4.4840 C.3     2  LIG2       -0.0404
      9    C       25.6070    0.8570    2.8490 C.3     2  LIG2        0.0664
     10    C       27.6010   -0.6160    3.8040 C.3     2  LIG2       -0.0471
     11    C       25.0510    1.6990    4.0430 C.3     2  LIG2       -0.0237
     12    C       28.5330    4.6110    4.8770 C.3     2  LIG2       -0.0593
     13    C       28.0750    5.6800    2.6140 C.3     2  LIG2       -0.0593
     14    C       28.2300    0.0650    5.0120 C.3     2  LIG2       -0.0498
     15    C       30.4150    1.2840    4.4100 C.3     2  LIG2       -0.0621
     16    C       25.1620    1.4700    1.4920 C.3     2  LIG2       -0.0358
     17    H       27.7980    3.1940    1.6270 H       2  LIG2        0.0312
     18    H       25.7890    4.2400    2.7590 H       2  LIG2        0.0309
     19    H       28.9710    1.4450    2.3860 H       2  LIG2        0.0310
     20    H       27.3490    0.1390    1.8500 H       2  LIG2        0.0331
     21    H       26.5590    2.6030    5.2600 H       2  LIG2        0.0269
     22    H       25.1770    3.6030    5.0540 H       2  LIG2        0.0269
     23    H       28.6480    2.1030    5.2250 H       2  LIG2        0.0301
     24    H       26.7990   -1.2820    4.1210 H       2  LIG2        0.0269
     25    H       28.3430   -1.2420    3.3060 H       2  LIG2        0.0269
     26    H       24.9460    1.0550    4.9190 H       2  LIG2        0.0293
     27    H       24.0380    2.0280    3.8060 H       2  LIG2        0.0293
     28    H       28.4340    5.6440    5.2130 H       2  LIG2        0.0235
     29    H       29.5990    4.3930    4.8330 H       2  LIG2        0.0235
     30    H       28.0950    4.0260    5.6800 H       2  LIG2        0.0235
     31    H       27.6790    6.5710    3.1040 H       2  LIG2        0.0235
     32    H       27.5710    5.5980    1.6500 H       2  LIG2        0.0235
     33    H       29.1330    5.8500    2.4130 H       2  LIG2        0.0235
     34    H       28.9450   -0.5950    5.5060 H       2  LIG2        0.0268
     35    H       27.4600    0.3040    5.7480 H       2  LIG2        0.0268
     36    H       30.7470    0.4820    3.7480 H       2  LIG2        0.0233
     37    H       30.8490    1.1010    5.3940 H       2  LIG2        0.0233
     38    H       30.8330    2.2190    4.0360 H       2  LIG2        0.0233
     39    H       25.6300    2.4250    1.2730 H       2  LIG2        0.0257
     40    H       24.0840    1.6390    1.4530 H       2  LIG2        0.0257
     41    H       25.4070    0.8140    0.6550 H       2  LIG2        0.0257
     42    H       23.9260   -0.1280    2.7820 H       2  LIG2        0.2102
@<TRIPOS>BOND
     1    41    16    1
     2    39    16    1
     3    40    16    1
     4    16     9    1
     5    17     2    1
     6    32    13    1
     7    20     6    1
     8    19     5    1
     9    33    13    1
    10    13    31    1
    11    13     3    1
    12     2     5    1
    13     2     4    1
    14     2     3    1
    15    18     4    1
    16    42     1    1
    17     9     6    1
    18     9     1    1
    19     9    11    1
    20     6     5    1
    21     6    10    1
    22     5     8    1
    23    25    10    1
    24     4     3    1
    25     4     7    1
    26     3    12    1
    27    36    15    1
    28    10    24    1
    29    10    14    1
    30    27    11    1
    31    38    15    1
    32    11     7    1
    33    11    26    1
    34    15     8    1
    35    15    37    1
    36     8    14    1
    37     8    23    1
    38     7    22    1
    39     7    21    1
    40    29    12    1
    41    12    28    1
    42    12    30    1
    43    14    34    1
    44    14    35    1
@<TRIPOS>MOLECULE
11996452_6_run_1.pdb
 42 44 0 0 0
SMALL
GASTEIGER

@<TRIPOS>ATOM
      1    O       30.3930    2.9840    4.6050 O.3     2  LIG2       -0.3886
      2    C       26.0140    1.8990    4.5990 C.3     2  LIG2       -0.0289
      3    C       24.8810    2.0580    3.5750 C.3     2  LIG2       -0.0284
      4    C       26.0850    2.9770    3.5130 C.3     2  LIG2       -0.0319
      5    C       27.1500    0.8250    4.6890 C.3     2  LIG2       -0.0294
      6    C       28.5950    1.3590    4.9610 C.3     2  LIG2       -0.0090
      7    C       27.2300    2.8740    2.4850 C.3     2  LIG2       -0.0468
      8    C       27.2670   -0.3360    3.6560 C.3     2  LIG2       -0.0404
      9    C       28.9860    2.8170    4.5000 C.3     2  LIG2        0.0664
     10    C       29.5050    0.2110    4.4660 C.3     2  LIG2       -0.0471
     11    C       28.6290    3.2280    3.0350 C.3     2  LIG2       -0.0237
     12    C       24.5830    1.1060    2.3920 C.3     2  LIG2       -0.0593
     13    C       23.5780    2.6680    4.1310 C.3     2  LIG2       -0.0593
     14    C       28.7600   -0.4620    3.3220 C.3     2  LIG2       -0.0498
     15    C       26.6290   -1.6590    4.1230 C.3     2  LIG2       -0.0621
     16    C       28.4850    3.8890    5.5080 C.3     2  LIG2       -0.0358
     17    H       25.7890    2.2570    5.6050 H       2  LIG2        0.0312
     18    H       25.8980    4.0170    3.7880 H       2  LIG2        0.0309
     19    H       26.8990    0.3140    5.6210 H       2  LIG2        0.0310
     20    H       28.7220    1.3710    6.0450 H       2  LIG2        0.0331
     21    H       27.2930    1.8860    2.0440 H       2  LIG2        0.0269
     22    H       27.0040    3.5320    1.6450 H       2  LIG2        0.0269
     23    H       26.7930   -0.0920    2.7190 H       2  LIG2        0.0301
     24    H       30.4930    0.5340    4.1370 H       2  LIG2        0.0269
     25    H       29.6680   -0.5050    5.2730 H       2  LIG2        0.0269
     26    H       29.3490    2.7760    2.3490 H       2  LIG2        0.0293
     27    H       28.7660    4.3050    2.9240 H       2  LIG2        0.0293
     28    H       23.7520    1.4840    1.7960 H       2  LIG2        0.0235
     29    H       24.2910    0.1200    2.7520 H       2  LIG2        0.0235
     30    H       25.3910    0.9870    1.6770 H       2  LIG2        0.0235
     31    H       23.0240    3.1940    3.3520 H       2  LIG2        0.0235
     32    H       23.7650    3.3870    4.9300 H       2  LIG2        0.0235
     33    H       22.9290    1.8930    4.5390 H       2  LIG2        0.0235
     34    H       29.0810   -1.4980    3.2010 H       2  LIG2        0.0268
     35    H       28.9810    0.0490    2.3830 H       2  LIG2        0.0268
     36    H       27.1120   -2.0400    5.0250 H       2  LIG2        0.0233
     37    H       26.7100   -2.4290    3.3550 H       2  LIG2        0.0233
     38    H       25.5690   -1.5270    4.3440 H       2  LIG2        0.0233
     39    H       27.4030    3.9340    5.5910 H       2  LIG2        0.0257
     40    H       28.8160    4.8930    5.2360 H       2  LIG2        0.0257
     41    H       28.8590    3.6980    6.5160 H       2  LIG2        0.0257
     42    H       30.6500    3.7360    4.0660 H       2  LIG2        0.2102
@<TRIPOS>BOND
     1    22     7    1
     2    30    12    1
     3    28    12    1
     4    21     7    1
     5    26    11    1
     6    35    14    1
     7    12    29    1
     8    12     3    1
     9     7    11    1
    10     7     4    1
    11    23     8    1
    12    27    11    1
    13    11     9    1
    14    34    14    1
    15    14     8    1
    16    14    10    1
    17    31    13    1
    18    37    15    1
    19     4     3    1
    20     4    18    1
    21     4     2    1
    22     3    13    1
    23     3     2    1
    24     8    15    1
    25     8     5    1
    26    42     1    1
    27    15    38    1
    28    15    36    1
    29    13    33    1
    30    13    32    1
    31    24    10    1
    32    10     6    1
    33    10    25    1
    34     9     1    1
    35     9     6    1
    36     9    16    1
    37     2     5    1
    38     2    17    1
    39     5     6    1
    40     5    19    1
    41     6    20    1
    42    40    16    1
    43    16    39    1
    44    16    41    1
@<TRIPOS>MOLECULE
11996452_6_run_10.pdb
 42 44 0 0 0
SMALL
GASTEIGER

@<TRIPOS>ATOM
      1    O       28.8490    4.2530    6.1210 O.3     2  LIG2       -0.3886
      2    C       29.3160    0.6890    3.3940 C.3     2  LIG2       -0.0289
      3    C       29.2380   -0.8300    3.6070 C.3     2  LIG2       -0.0284
      4    C       29.5670    0.0780    4.7760 C.3     2  LIG2       -0.0319
      5    C       28.1710    1.7430    3.2190 C.3     2  LIG2       -0.0294
      6    C       28.3000    3.0600    4.0540 C.3     2  LIG2       -0.0090
      7    C       28.5910    0.4590    5.9080 C.3     2  LIG2       -0.0468
      8    C       26.6680    1.3320    3.2220 C.3     2  LIG2       -0.0404
      9    C       29.0880    3.0400    5.4220 C.3     2  LIG2        0.0664
     10    C       26.8540    3.6050    4.0980 C.3     2  LIG2       -0.0471
     11    C       28.7390    1.9020    6.4360 C.3     2  LIG2       -0.0237
     12    C       27.9460   -1.6800    3.6380 C.3     2  LIG2       -0.0593
     13    C       30.4120   -1.6330    3.0110 C.3     2  LIG2       -0.0593
     14    C       25.9380    2.3890    4.0630 C.3     2  LIG2       -0.0498
     15    C       26.0650    1.1430    1.8160 C.3     2  LIG2       -0.0621
     16    C       30.6240    3.1240    5.1980 C.3     2  LIG2       -0.0358
     17    H       30.2040    1.0430    2.8670 H       2  LIG2        0.0312
     18    H       30.5910    0.0150    5.1480 H       2  LIG2        0.0309
     19    H       28.3400    2.0860    2.1950 H       2  LIG2        0.0310
     20    H       28.8490    3.7690    3.4320 H       2  LIG2        0.0331
     21    H       27.5560    0.3230    5.6150 H       2  LIG2        0.0269
     22    H       28.7310   -0.2360    6.7370 H       2  LIG2        0.0269
     23    H       26.5050    0.4020    3.7430 H       2  LIG2        0.0301
     24    H       26.6340    4.2200    4.9700 H       2  LIG2        0.0269
     25    H       26.6690    4.2320    3.2250 H       2  LIG2        0.0269
     26    H       27.7980    2.1420    6.9360 H       2  LIG2        0.0293
     27    H       29.4900    1.8900    7.2280 H       2  LIG2        0.0293
     28    H       28.1790   -2.7230    3.8550 H       2  LIG2        0.0235
     29    H       27.4480   -1.6620    2.6690 H       2  LIG2        0.0235
     30    H       27.2260   -1.4030    4.4010 H       2  LIG2        0.0235
     31    H       30.5800   -2.5580    3.5650 H       2  LIG2        0.0235
     32    H       31.3490   -1.0760    3.0300 H       2  LIG2        0.0235
     33    H       30.2140   -1.8970    1.9720 H       2  LIG2        0.0235
     34    H       24.9580    2.6480    3.6590 H       2  LIG2        0.0268
     35    H       25.7740    2.0180    5.0760 H       2  LIG2        0.0268
     36    H       26.0990    2.0690    1.2380 H       2  LIG2        0.0233
     37    H       25.0230    0.8270    1.8720 H       2  LIG2        0.0233
     38    H       26.6080    0.3810    1.2550 H       2  LIG2        0.0233
     39    H       31.0310    2.2720    4.6620 H       2  LIG2        0.0257
     40    H       31.1710    3.1860    6.1410 H       2  LIG2        0.0257
     41    H       30.8970    4.0070    4.6180 H       2  LIG2        0.0257
     42    H       28.7250    4.9550    5.4780 H       2  LIG2        0.2102
@<TRIPOS>BOND
     1    36    15    1
     2    38    15    1
     3    15    37    1
     4    15     8    1
     5    33    13    1
     6    19     5    1
     7    29    12    1
     8    17     2    1
     9    13    32    1
    10    13    31    1
    11    13     3    1
    12     5     8    1
    13     5     2    1
    14     5     6    1
    15     8    23    1
    16     8    14    1
    17    25    10    1
    18     2     3    1
    19     2     4    1
    20    20     6    1
    21     3    12    1
    22     3     4    1
    23    12    28    1
    24    12    30    1
    25    34    14    1
    26     6    10    1
    27     6     9    1
    28    14    10    1
    29    14    35    1
    30    10    24    1
    31    41    16    1
    32    39    16    1
    33     4    18    1
    34     4     7    1
    35    16     9    1
    36    16    40    1
    37     9     1    1
    38     9    11    1
    39    42     1    1
    40    21     7    1
    41     7    11    1
    42     7    22    1
    43    11    26    1
    44    11    27    1
