@<TRIPOS>MOLECULE
11996452_9_run_1.pdb
 42 44 0 0 0
SMALL
GASTEIGER

@<TRIPOS>ATOM
      1    O       30.8310    1.6470    3.9750 O.3     2  LIG2       -0.3886
      2    C       28.2360    3.0260    3.3630 C.3     2  LIG2       -0.0289
      3    C       27.4910    4.1710    4.0650 C.3     2  LIG2       -0.0284
      4    C       28.6060    3.4420    4.7890 C.3     2  LIG2       -0.0319
      5    C       27.7890    1.5500    3.0840 C.3     2  LIG2       -0.0294
      6    C       28.8350    0.4320    3.4070 C.3     2  LIG2       -0.0090
      7    C       28.4090    2.3910    5.9030 C.3     2  LIG2       -0.0468
      8    C       26.3900    1.0190    3.5160 C.3     2  LIG2       -0.0404
      9    C       29.9330    0.6860    4.5110 C.3     2  LIG2        0.0664
     10    C       27.9780   -0.8400    3.5750 C.3     2  LIG2       -0.0471
     11    C       29.4350    1.2350    5.8850 C.3     2  LIG2       -0.0237
     12    C       27.8180    5.5830    3.5380 C.3     2  LIG2       -0.0593
     13    C       26.0490    4.1100    4.6230 C.3     2  LIG2       -0.0593
     14    C       26.6300   -0.3760    4.1110 C.3     2  LIG2       -0.0498
     15    C       25.3400    1.0310    2.3880 C.3     2  LIG2       -0.0621
     16    C       30.8370   -0.5480    4.7550 C.3     2  LIG2       -0.0358
     17    H       28.9540    3.3270    2.5970 H       2  LIG2        0.0312
     18    H       29.5250    4.0080    4.9440 H       2  LIG2        0.0309
     19    H       27.7440    1.5370    1.9920 H       2  LIG2        0.0310
     20    H       29.4040    0.2670    2.4880 H       2  LIG2        0.0331
     21    H       28.4590    2.8940    6.8700 H       2  LIG2        0.0269
     22    H       27.4190    1.9510    5.8770 H       2  LIG2        0.0269
     23    H       25.9700    1.5970    4.3220 H       2  LIG2        0.0301
     24    H       27.8420   -1.3230    2.6050 H       2  LIG2        0.0269
     25    H       28.4120   -1.5890    4.2330 H       2  LIG2        0.0269
     26    H       30.3000    1.5310    6.4840 H       2  LIG2        0.0293
     27    H       28.9850    0.4100    6.4400 H       2  LIG2        0.0293
     28    H       27.6840    6.3360    4.3150 H       2  LIG2        0.0235
     29    H       27.1710    5.8450    2.7010 H       2  LIG2        0.0235
     30    H       28.8490    5.6650    3.1890 H       2  LIG2        0.0235
     31    H       25.7890    5.0490    5.1130 H       2  LIG2        0.0235
     32    H       25.8790    3.3540    5.3830 H       2  LIG2        0.0235
     33    H       25.3280    3.9630    3.8190 H       2  LIG2        0.0235
     34    H       26.6610   -0.3230    5.2010 H       2  LIG2        0.0268
     35    H       25.8410   -1.0860    3.8550 H       2  LIG2        0.0268
     36    H       25.6390    0.3920    1.5560 H       2  LIG2        0.0233
     37    H       25.1960    2.0400    2.0000 H       2  LIG2        0.0233
     38    H       24.3730    0.6770    2.7460 H       2  LIG2        0.0233
     39    H       30.3180   -1.3330    5.3050 H       2  LIG2        0.0257
     40    H       31.7190   -0.2960    5.3460 H       2  LIG2        0.0257
     41    H       31.1890   -0.9810    3.8180 H       2  LIG2        0.0257
     42    H       31.4470    1.1970    3.3930 H       2  LIG2        0.2102
@<TRIPOS>BOND
     1    36    15    1
     2    19     5    1
     3    37    15    1
     4    15    38    1
     5    15     8    1
     6    20     6    1
     7    17     2    1
     8    24    10    1
     9    29    12    1
    10     5     2    1
    11     5     6    1
    12     5     8    1
    13    30    12    1
    14     2     3    1
    15     2     4    1
    16    42     1    1
    17     6    10    1
    18     6     9    1
    19     8    14    1
    20     8    23    1
    21    12     3    1
    22    12    28    1
    23    10    14    1
    24    10    25    1
    25    41    16    1
    26    33    13    1
    27    35    14    1
    28     1     9    1
    29     3    13    1
    30     3     4    1
    31    14    34    1
    32     9    16    1
    33     9    11    1
    34    13    31    1
    35    13    32    1
    36    16    39    1
    37    16    40    1
    38     4    18    1
    39     4     7    1
    40    22     7    1
    41    11     7    1
    42    11    27    1
    43    11    26    1
    44     7    21    1
@<TRIPOS>MOLECULE
11996452_9_run_21.pdb
 42 44 0 0 0
SMALL
GASTEIGER

@<TRIPOS>ATOM
      1    O       28.8490    4.0490    3.8450 O.3     2  LIG2       -0.3886
      2    C       25.9300    3.9980    3.1500 C.3     2  LIG2       -0.0289
      3    C       24.6960    4.5790    3.8550 C.3     2  LIG2       -0.0284
      4    C       26.0060    4.4550    4.6080 C.3     2  LIG2       -0.0319
      5    C       26.2830    2.5130    2.7900 C.3     2  LIG2       -0.0294
      6    C       27.7370    2.0420    3.1260 C.3     2  LIG2       -0.0090
      7    C       26.3280    3.3800    5.6690 C.3     2  LIG2       -0.0468
      8    C       25.3220    1.3350    3.1280 C.3     2  LIG2       -0.0404
      9    C       28.5340    2.7390    4.2950 C.3     2  LIG2        0.0664
     10    C       27.6210    0.5050    3.1980 C.3     2  LIG2       -0.0471
     11    C       27.7920    2.8860    5.6610 C.3     2  LIG2       -0.0237
     12    C       24.2920    5.9970    3.4010 C.3     2  LIG2       -0.0593
     13    C       23.4610    3.7800    4.3340 C.3     2  LIG2       -0.0593
     14    C       26.2070    0.2080    3.6800 C.3     2  LIG2       -0.0498
     15    C       24.4350    0.8930    1.9470 C.3     2  LIG2       -0.0621
     16    C       29.9240    2.1020    4.5380 C.3     2  LIG2       -0.0358
     17    H       26.4240    4.6590    2.4350 H       2  LIG2        0.0312
     18    H       26.5180    5.3920    4.8340 H       2  LIG2        0.0309
     19    H       26.2800    2.5450    1.6980 H       2  LIG2        0.0310
     20    H       28.3370    2.2360    2.2320 H       2  LIG2        0.0331
     21    H       26.0950    3.7830    6.6560 H       2  LIG2        0.0269
     22    H       25.6880    2.5100    5.5740 H       2  LIG2        0.0269
     23    H       24.6490    1.5800    3.9320 H       2  LIG2        0.0301
     24    H       27.7690    0.0770    2.2050 H       2  LIG2        0.0269
     25    H       28.3530    0.0310    3.8490 H       2  LIG2        0.0269
     26    H       28.3790    3.5350    6.3160 H       2  LIG2        0.0293
     27    H       27.7970    1.9150    6.1590 H       2  LIG2        0.0293
     28    H       23.7810    6.5360    4.1990 H       2  LIG2        0.0235
     29    H       23.6240    5.9540    2.5420 H       2  LIG2        0.0235
     30    H       25.1550    6.5990    3.1110 H       2  LIG2        0.0235
     31    H       22.7550    4.4360    4.8450 H       2  LIG2        0.0235
     32    H       23.6680    2.9950    5.0530 H       2  LIG2        0.0235
     33    H       22.9300    3.3430    3.4880 H       2  LIG2        0.0235
     34    H       26.1790    0.2050    4.7710 H       2  LIG2        0.0268
     35    H       25.8820   -0.7820    3.3550 H       2  LIG2        0.0268
     36    H       25.0350    0.5370    1.1080 H       2  LIG2        0.0233
     37    H       23.8200    1.7200    1.5910 H       2  LIG2        0.0233
     38    H       23.7630    0.0860    2.2390 H       2  LIG2        0.0233
     39    H       29.8490    1.1310    5.0290 H       2  LIG2        0.0257
     40    H       30.5480    2.7210    5.1850 H       2  LIG2        0.0257
     41    H       30.4710    1.9570    3.6050 H       2  LIG2        0.0257
     42    H       29.5990    3.9930    3.2490 H       2  LIG2        0.2102
@<TRIPOS>BOND
     1    36    15    1
     2    37    15    1
     3    19     5    1
     4    15    38    1
     5    15     8    1
     6    24    10    1
     7    20     6    1
     8    17     2    1
     9    29    12    1
    10     5     6    1
    11     5     8    1
    12     5     2    1
    13    30    12    1
    14     6    10    1
    15     6     9    1
    16     8    14    1
    17     8    23    1
    18     2     3    1
    19     2     4    1
    20    10    14    1
    21    10    25    1
    22    42     1    1
    23    35    14    1
    24    12     3    1
    25    12    28    1
    26    33    13    1
    27    41    16    1
    28    14    34    1
    29     1     9    1
    30     3    13    1
    31     3     4    1
    32     9    16    1
    33     9    11    1
    34    13    31    1
    35    13    32    1
    36    16    39    1
    37    16    40    1
    38     4    18    1
    39     4     7    1
    40    22     7    1
    41    11     7    1
    42    11    27    1
    43    11    26    1
    44     7    21    1
@<TRIPOS>MOLECULE
11996452_9_run_10.pdb
 42 44 0 0 0
SMALL
GASTEIGER

@<TRIPOS>ATOM
      1    O       25.4000    4.1430    5.6020 O.3     2  LIG2       -0.3886
      2    C       27.7770    2.3140    5.5190 C.3     2  LIG2       -0.0289
      3    C       29.2860    2.5930    5.4510 C.3     2  LIG2       -0.0284
      4    C       28.3000    3.6990    5.1300 C.3     2  LIG2       -0.0319
      5    C       26.8480    1.5350    4.5250 C.3     2  LIG2       -0.0294
      6    C       25.4900    2.2220    4.1590 C.3     2  LIG2       -0.0090
      7    C       27.9600    4.2080    3.7120 C.3     2  LIG2       -0.0468
      8    C       27.4010    0.8750    3.2280 C.3     2  LIG2       -0.0404
      9    C       25.3660    3.7930    4.2260 C.3     2  LIG2        0.0664
     10    C       25.0890    1.5600    2.8240 C.3     2  LIG2       -0.0471
     11    C       26.4840    4.6180    3.5120 C.3     2  LIG2       -0.0237
     12    C       29.9960    2.6770    6.8180 C.3     2  LIG2       -0.0593
     13    C       30.2560    2.0910    4.3550 C.3     2  LIG2       -0.0593
     14    C       26.3910    1.2020    2.1190 C.3     2  LIG2       -0.0498
     15    C       27.6890   -0.6330    3.3670 C.3     2  LIG2       -0.0621
     16    C       23.9810    4.3070    3.7610 C.3     2  LIG2       -0.0358
     17    H       27.3510    2.2500    6.5220 H       2  LIG2        0.0312
     18    H       28.2310    4.5060    5.8610 H       2  LIG2        0.0309
     19    H       26.5360    0.6850    5.1360 H       2  LIG2        0.0310
     20    H       24.7560    1.8580    4.8830 H       2  LIG2        0.0331
     21    H       28.5990    5.0630    3.4860 H       2  LIG2        0.0269
     22    H       28.2050    3.4780    2.9480 H       2  LIG2        0.0269
     23    H       28.3240    1.3270    2.9060 H       2  LIG2        0.0301
     24    H       24.5150    0.6520    3.0200 H       2  LIG2        0.0269
     25    H       24.4680    2.1840    2.1840 H       2  LIG2        0.0269
     26    H       26.3770    5.6700    3.7840 H       2  LIG2        0.0293
     27    H       26.2950    4.5900    2.4370 H       2  LIG2        0.0293
     28    H       30.8740    3.3220    6.7680 H       2  LIG2        0.0235
     29    H       30.3220    1.6910    7.1480 H       2  LIG2        0.0235
     30    H       29.3470    3.0820    7.5960 H       2  LIG2        0.0235
     31    H       31.2610    2.4770    4.5280 H       2  LIG2        0.0235
     32    H       30.0160    2.4070    3.3450 H       2  LIG2        0.0235
     33    H       30.3280    1.0030    4.3690 H       2  LIG2        0.0235
     34    H       26.7390    2.0520    1.5280 H       2  LIG2        0.0268
     35    H       26.2450    0.3750    1.4230 H       2  LIG2        0.0268
     36    H       26.7840   -1.1930    3.6050 H       2  LIG2        0.0233
     37    H       28.4150   -0.8190    4.1590 H       2  LIG2        0.0233
     38    H       28.0990   -1.0430    2.4440 H       2  LIG2        0.0233
     39    H       23.8620    4.2400    2.6790 H       2  LIG2        0.0257
     40    H       23.8290    5.3560    4.0190 H       2  LIG2        0.0257
     41    H       23.1670    3.7420    4.2170 H       2  LIG2        0.0257
     42    H       24.7250    3.6390    6.0600 H       2  LIG2        0.2102
@<TRIPOS>BOND
     1    35    14    1
     2    34    14    1
     3    14    10    1
     4    14     8    1
     5    25    10    1
     6    27    11    1
     7    38    15    1
     8    39    16    1
     9    10    24    1
    10    10     6    1
    11    23     8    1
    12    22     7    1
    13     8    15    1
    14     8     5    1
    15    32    13    1
    16    15    36    1
    17    15    37    1
    18    21     7    1
    19    11     7    1
    20    11    26    1
    21    11     9    1
    22     7     4    1
    23    16    40    1
    24    16    41    1
    25    16     9    1
    26     6     9    1
    27     6     5    1
    28     6    20    1
    29     9     1    1
    30    13    33    1
    31    13    31    1
    32    13     3    1
    33     5    19    1
    34     5     2    1
    35     4     3    1
    36     4     2    1
    37     4    18    1
    38     3     2    1
    39     3    12    1
    40     2    17    1
    41     1    42    1
    42    28    12    1
    43    12    29    1
    44    12    30    1
@<TRIPOS>MOLECULE
11996452_9_run_15.pdb
 42 44 0 0 0
SMALL
GASTEIGER

@<TRIPOS>ATOM
      1    O       27.9420   -1.7380    3.7540 O.3     2  LIG2       -0.3886
      2    C       26.9010    0.9570    4.5640 C.3     2  LIG2       -0.0289
      3    C       26.0840    2.0130    3.8050 C.3     2  LIG2       -0.0284
      4    C       26.7680    0.8970    3.0400 C.3     2  LIG2       -0.0319
      5    C       28.3260    1.0530    5.2080 C.3     2  LIG2       -0.0294
      6    C       29.3030   -0.1350    4.9180 C.3     2  LIG2       -0.0090
      7    C       28.0640    1.0440    2.2130 C.3     2  LIG2       -0.0468
      8    C       29.1630    2.3660    5.1630 C.3     2  LIG2       -0.0404
      9    C       29.1340   -0.9810    3.5980 C.3     2  LIG2        0.0664
     10    C       30.7020    0.4660    5.1710 C.3     2  LIG2       -0.0471
     11    C       29.0030   -0.1830    2.2630 C.3     2  LIG2       -0.0237
     12    C       24.5550    1.9000    3.9710 C.3     2  LIG2       -0.0593
     13    C       26.5050    3.4810    3.5530 C.3     2  LIG2       -0.0593
     14    C       30.5990    1.9450    4.8200 C.3     2  LIG2       -0.0498
     15    C       29.0640    3.2160    6.4450 C.3     2  LIG2       -0.0621
     16    C       30.2270   -2.0660    3.4350 C.3     2  LIG2       -0.0358
     17    H       26.3210    0.2070    5.1050 H       2  LIG2        0.0312
     18    H       26.1110    0.1430    2.6040 H       2  LIG2        0.0309
     19    H       28.0970    0.9290    6.2690 H       2  LIG2        0.0310
     20    H       29.1590   -0.8570    5.7270 H       2  LIG2        0.0331
     21    H       27.7940    1.2420    1.1750 H       2  LIG2        0.0269
     22    H       28.6410    1.9110    2.5130 H       2  LIG2        0.0269
     23    H       28.8610    3.0090    4.3540 H       2  LIG2        0.0301
     24    H       30.9660    0.3560    6.2250 H       2  LIG2        0.0269
     25    H       31.5010   -0.0050    4.6030 H       2  LIG2        0.0269
     26    H       28.7150   -0.8710    1.4650 H       2  LIG2        0.0293
     27    H       29.9940    0.1720    1.9770 H       2  LIG2        0.0293
     28    H       24.0320    2.2970    3.1010 H       2  LIG2        0.0235
     29    H       24.2180    2.4520    4.8470 H       2  LIG2        0.0235
     30    H       24.2290    0.8650    4.0950 H       2  LIG2        0.0235
     31    H       25.7580    3.9940    2.9470 H       2  LIG2        0.0235
     32    H       27.4320    3.6080    3.0040 H       2  LIG2        0.0235
     33    H       26.5800    4.0290    4.4930 H       2  LIG2        0.0235
     34    H       30.7920    2.0890    3.7550 H       2  LIG2        0.0268
     35    H       31.3500    2.5280    5.3560 H       2  LIG2        0.0268
     36    H       29.4380    2.6730    7.3140 H       2  LIG2        0.0233
     37    H       28.0300    3.4980    6.6470 H       2  LIG2        0.0233
     38    H       29.6430    4.1350    6.3540 H       2  LIG2        0.0233
     39    H       31.1910   -1.6380    3.1600 H       2  LIG2        0.0257
     40    H       29.9770   -2.7810    2.6500 H       2  LIG2        0.0257
     41    H       30.3710   -2.6350    4.3550 H       2  LIG2        0.0257
     42    H       28.0250   -2.2760    4.5450 H       2  LIG2        0.2102
@<TRIPOS>BOND
     1    21     7    1
     2    26    11    1
     3    27    11    1
     4     7    11    1
     5     7    22    1
     6     7     4    1
     7    11     9    1
     8    18     4    1
     9    40    16    1
    10    31    13    1
    11    32    13    1
    12     4     3    1
    13     4     2    1
    14    28    12    1
    15    39    16    1
    16    16     9    1
    17    16    41    1
    18    13     3    1
    19    13    33    1
    20     9     1    1
    21     9     6    1
    22     1    42    1
    23    34    14    1
    24     3    12    1
    25     3     2    1
    26    12    30    1
    27    12    29    1
    28    23     8    1
    29     2    17    1
    30     2     5    1
    31    25    10    1
    32    14     8    1
    33    14    10    1
    34    14    35    1
    35     6    10    1
    36     6     5    1
    37     6    20    1
    38     8     5    1
    39     8    15    1
    40    10    24    1
    41     5    19    1
    42    38    15    1
    43    15    37    1
    44    15    36    1
@<TRIPOS>MOLECULE
11996452_9_run_10.pdb
 42 44 0 0 0
SMALL
GASTEIGER

@<TRIPOS>ATOM
      1    O       25.5250    0.3110    4.6050 O.3     2  LIG2       -0.3886
      2    C       26.6130    3.1020    4.7820 C.3     2  LIG2       -0.0289
      3    C       26.4460    4.3290    3.8750 C.3     2  LIG2       -0.0284
      4    C       26.0680    2.9550    3.3600 C.3     2  LIG2       -0.0319
      5    C       27.9070    2.3190    5.1950 C.3     2  LIG2       -0.0294
      6    C       27.8310    0.7580    5.1160 C.3     2  LIG2       -0.0090
      7    C       26.9000    2.1120    2.3690 C.3     2  LIG2       -0.0468
      8    C       29.3190    2.7430    4.6940 C.3     2  LIG2       -0.0404
      9    C       26.8320    0.0740    4.1040 C.3     2  LIG2        0.0664
     10    C       29.3070    0.3190    5.0220 C.3     2  LIG2       -0.0471
     11    C       26.8630    0.5890    2.6300 C.3     2  LIG2       -0.0237
     12    C       25.2830    5.2680    4.2540 C.3     2  LIG2       -0.0593
     13    C       27.5880    5.1150    3.1870 C.3     2  LIG2       -0.0593
     14    C       30.0400    1.4440    4.3010 C.3     2  LIG2       -0.0498
     15    C       30.1100    3.6000    5.7020 C.3     2  LIG2       -0.0621
     16    C       26.9400   -1.4710    4.1050 C.3     2  LIG2       -0.0358
     17    H       25.8690    2.9920    5.5730 H       2  LIG2        0.0312
     18    H       25.0010    2.7700    3.2280 H       2  LIG2        0.0309
     19    H       27.9460    2.5090    6.2700 H       2  LIG2        0.0310
     20    H       27.5000    0.4160    6.1010 H       2  LIG2        0.0331
     21    H       26.5410    2.3060    1.3580 H       2  LIG2        0.0269
     22    H       27.9400    2.4160    2.3500 H       2  LIG2        0.0269
     23    H       29.2700    3.3190    3.7850 H       2  LIG2        0.0301
     24    H       29.7210    0.1950    6.0250 H       2  LIG2        0.0269
     25    H       29.4620   -0.6270    4.5070 H       2  LIG2        0.0269
     26    H       26.0140    0.1660    2.0890 H       2  LIG2        0.0293
     27    H       27.7420    0.1670    2.1390 H       2  LIG2        0.0293
     28    H       24.9020    5.7990    3.3810 H       2  LIG2        0.0235
     29    H       25.6050    6.0100    4.9840 H       2  LIG2        0.0235
     30    H       24.4410    4.7280    4.6910 H       2  LIG2        0.0235
     31    H       27.1820    5.9120    2.5620 H       2  LIG2        0.0235
     32    H       28.2080    4.5340    2.5130 H       2  LIG2        0.0235
     33    H       28.2320    5.5910    3.9270 H       2  LIG2        0.0235
     34    H       29.9850    1.2920    3.2210 H       2  LIG2        0.0268
     35    H       31.0990    1.4530    4.5630 H       2  LIG2        0.0268
     36    H       30.2910    3.0590    6.6310 H       2  LIG2        0.0233
     37    H       29.5670    4.5130    5.9470 H       2  LIG2        0.0233
     38    H       31.0780    3.8930    5.2960 H       2  LIG2        0.0233
     39    H       27.8450   -1.8180    3.6070 H       2  LIG2        0.0257
     40    H       26.1060   -1.9370    3.5780 H       2  LIG2        0.0257
     41    H       26.9470   -1.8740    5.1190 H       2  LIG2        0.0257
     42    H       25.5260    0.1430    5.5500 H       2  LIG2        0.2102
@<TRIPOS>BOND
     1    21     7    1
     2    26    11    1
     3    27    11    1
     4    22     7    1
     5     7    11    1
     6     7     4    1
     7    32    13    1
     8    31    13    1
     9    11     9    1
    10    13     3    1
    11    13    33    1
    12    34    14    1
    13    18     4    1
    14     4     3    1
    15     4     2    1
    16    28    12    1
    17    40    16    1
    18    39    16    1
    19    23     8    1
    20     3    12    1
    21     3     2    1
    22     9    16    1
    23     9     1    1
    24     9     6    1
    25    16    41    1
    26    12    30    1
    27    12    29    1
    28    14    35    1
    29    14     8    1
    30    14    10    1
    31    25    10    1
    32     1    42    1
    33     8     5    1
    34     8    15    1
    35     2     5    1
    36     2    17    1
    37    10     6    1
    38    10    24    1
    39     6     5    1
    40     6    20    1
    41     5    19    1
    42    38    15    1
    43    15    37    1
    44    15    36    1
@<TRIPOS>MOLECULE
11996452_9_run_5.pdb
 42 44 0 0 0
SMALL
GASTEIGER

@<TRIPOS>ATOM
      1    O       26.9490    3.3660    5.8920 O.3     2  LIG2       -0.3886
      2    C       28.5550    0.8320    5.9570 C.3     2  LIG2       -0.0289
      3    C       30.0230    0.5560    6.3140 C.3     2  LIG2       -0.0284
      4    C       29.5720    1.9750    6.0310 C.3     2  LIG2       -0.0319
      5    C       27.7760    0.5820    4.6200 C.3     2  LIG2       -0.0294
      6    C       26.8730    1.7540    4.1100 C.3     2  LIG2       -0.0090
      7    C       29.8490    2.7570    4.7280 C.3     2  LIG2       -0.0468
      8    C       28.4620   -0.0530    3.3750 C.3     2  LIG2       -0.0404
      9    C       27.2260    3.2400    4.5040 C.3     2  LIG2        0.0664
     10    C       26.7090    1.4660    2.6030 C.3     2  LIG2       -0.0471
     11    C       28.7030    3.6940    4.2840 C.3     2  LIG2       -0.0237
     12    C       30.2790    0.1940    7.7910 C.3     2  LIG2       -0.0593
     13    C       31.0740   -0.1100    5.3930 C.3     2  LIG2       -0.0593
     14    C       27.9850    0.7610    2.1630 C.3     2  LIG2       -0.0498
     15    C       28.2160   -1.5680    3.2280 C.3     2  LIG2       -0.0621
     16    C       26.2740    4.2750    3.8560 C.3     2  LIG2       -0.0358
     17    H       27.8490    0.7920    6.7880 H       2  LIG2        0.0312
     18    H       29.5380    2.6460    6.8890 H       2  LIG2        0.0309
     19    H       27.0490   -0.1730    4.9280 H       2  LIG2        0.0310
     20    H       25.8800    1.5850    4.5370 H       2  LIG2        0.0331
     21    H       30.7570    3.3470    4.8620 H       2  LIG2        0.0269
     22    H       30.0740    2.0980    3.8980 H       2  LIG2        0.0269
     23    H       29.5310    0.0750    3.3930 H       2  LIG2        0.0301
     24    H       25.8520    0.8080    2.4440 H       2  LIG2        0.0269
     25    H       26.5340    2.3510    1.9950 H       2  LIG2        0.0269
     26    H       28.8490    4.6680    4.7570 H       2  LIG2        0.0293
     27    H       28.8480    3.8810    3.2180 H       2  LIG2        0.0293
     28    H       31.2850    0.4800    8.1000 H       2  LIG2        0.0235
     29    H       30.1690   -0.8770    7.9540 H       2  LIG2        0.0235
     30    H       29.5830    0.6970    8.4660 H       2  LIG2        0.0235
     31    H       32.0480   -0.1390    5.8830 H       2  LIG2        0.0235
     32    H       31.2590    0.4040    4.4560 H       2  LIG2        0.0235
     33    H       30.7990   -1.1420    5.1740 H       2  LIG2        0.0235
     34    H       28.7400    1.4990    1.8820 H       2  LIG2        0.0268
     35    H       27.8080    0.1430    1.2820 H       2  LIG2        0.0268
     36    H       27.1540   -1.7910    3.1100 H       2  LIG2        0.0233
     37    H       28.5740   -2.1080    4.1050 H       2  LIG2        0.0233
     38    H       28.7370   -1.9700    2.3600 H       2  LIG2        0.0233
     39    H       26.4710    4.4020    2.7910 H       2  LIG2        0.0257
     40    H       26.3830    5.2640    4.3040 H       2  LIG2        0.0257
     41    H       25.2280    3.9860    3.9640 H       2  LIG2        0.0257
     42    H       26.0750    3.0080    6.0620 H       2  LIG2        0.2102
@<TRIPOS>BOND
     1    35    14    1
     2    34    14    1
     3    25    10    1
     4    14    10    1
     5    14     8    1
     6    38    15    1
     7    24    10    1
     8    10     6    1
     9    39    16    1
    10    36    15    1
    11    27    11    1
    12    15     8    1
    13    15    37    1
    14     8    23    1
    15     8     5    1
    16    16    41    1
    17    16    40    1
    18    16     9    1
    19    22     7    1
    20     6     9    1
    21     6    20    1
    22     6     5    1
    23    11     9    1
    24    11     7    1
    25    11    26    1
    26    32    13    1
    27     9     1    1
    28     5    19    1
    29     5     2    1
    30     7    21    1
    31     7     4    1
    32    33    13    1
    33    13    31    1
    34    13     3    1
    35     1    42    1
    36     2     4    1
    37     2     3    1
    38     2    17    1
    39     4     3    1
    40     4    18    1
    41     3    12    1
    42    12    29    1
    43    12    28    1
    44    12    30    1
@<TRIPOS>MOLECULE
11996452_9_run_20.pdb
 42 44 0 0 0
SMALL
GASTEIGER

@<TRIPOS>ATOM
      1    O       25.5610    0.5710    1.7140 O.3     2  LIG2       -0.3886
      2    C       28.2000    1.6120    2.6920 C.3     2  LIG2       -0.0289
      3    C       29.3390    0.9460    3.4780 C.3     2  LIG2       -0.0284
      4    C       27.9760    0.2850    3.4220 C.3     2  LIG2       -0.0319
      5    C       27.3110    2.8500    3.0570 C.3     2  LIG2       -0.0294
      6    C       25.7710    2.6930    2.8240 C.3     2  LIG2       -0.0090
      7    C       26.9410    0.2760    4.5670 C.3     2  LIG2       -0.0468
      8    C       27.5040    3.6380    4.3850 C.3     2  LIG2       -0.0404
      9    C       25.1150    1.2590    2.8740 C.3     2  LIG2        0.0664
     10    C       25.1470    3.7620    3.7460 C.3     2  LIG2       -0.0471
     11    C       25.4680    0.3660    4.1050 C.3     2  LIG2       -0.0237
     12    C       30.4480    0.3150    2.6110 C.3     2  LIG2       -0.0593
     13    C       29.9050    1.4190    4.8380 C.3     2  LIG2       -0.0593
     14    C       26.0930    3.9080    4.9300 C.3     2  LIG2       -0.0498
     15    C       28.3560    4.9140    4.2370 C.3     2  LIG2       -0.0621
     16    C       23.5770    1.2950    2.6980 C.3     2  LIG2       -0.0358
     17    H       28.2640    1.5320    1.6050 H       2  LIG2        0.0312
     18    H       27.9120   -0.6300    2.8310 H       2  LIG2        0.0309
     19    H       27.6040    3.5660    2.2850 H       2  LIG2        0.0310
     20    H       25.5740    3.0490    1.8090 H       2  LIG2        0.0331
     21    H       27.0730   -0.6360    5.1510 H       2  LIG2        0.0269
     22    H       27.1110    1.0790    5.2760 H       2  LIG2        0.0269
     23    H       27.9860    3.0430    5.1420 H       2  LIG2        0.0301
     24    H       25.0760    4.7130    3.2130 H       2  LIG2        0.0269
     25    H       24.1410    3.5260    4.0890 H       2  LIG2        0.0269
     26    H       25.1000   -0.6470    3.9260 H       2  LIG2        0.0293
     27    H       24.8940    0.7220    4.9620 H       2  LIG2        0.0293
     28    H       30.9290   -0.5160    3.1280 H       2  LIG2        0.0235
     29    H       31.2160    1.0480    2.3670 H       2  LIG2        0.0235
     30    H       30.0630   -0.0770    1.6680 H       2  LIG2        0.0235
     31    H       30.6770    0.7340    5.1910 H       2  LIG2        0.0235
     32    H       29.1860    1.4540    5.6500 H       2  LIG2        0.0235
     33    H       30.3710    2.4000    4.7450 H       2  LIG2        0.0235
     34    H       25.8400    3.1770    5.7010 H       2  LIG2        0.0268
     35    H       25.9990    4.8930    5.3890 H       2  LIG2        0.0268
     36    H       27.8950    5.6260    3.5510 H       2  LIG2        0.0233
     37    H       29.3490    4.6780    3.8550 H       2  LIG2        0.0233
     38    H       28.4850    5.4160    5.1970 H       2  LIG2        0.0233
     39    H       23.0720    1.6690    3.5880 H       2  LIG2        0.0257
     40    H       23.1660    0.3020    2.5100 H       2  LIG2        0.0257
     41    H       23.2820    1.9290    1.8600 H       2  LIG2        0.0257
     42    H       25.3290    1.0930    0.9430 H       2  LIG2        0.2102
@<TRIPOS>BOND
     1    42     1    1
     2    17     2    1
     3    30    12    1
     4     1     9    1
     5    20     6    1
     6    41    16    1
     7    19     5    1
     8    29    12    1
     9    40    16    1
    10    12    28    1
    11    12     3    1
    12     2     5    1
    13     2     4    1
    14     2     3    1
    15    16     9    1
    16    16    39    1
    17     6     9    1
    18     6     5    1
    19     6    10    1
    20    18     4    1
    21     9    11    1
    22     5     8    1
    23    24    10    1
    24     4     3    1
    25     4     7    1
    26     3    13    1
    27    36    15    1
    28    10    25    1
    29    10    14    1
    30    37    15    1
    31    26    11    1
    32    11     7    1
    33    11    27    1
    34    15     8    1
    35    15    38    1
    36     8    14    1
    37     8    23    1
    38     7    21    1
    39     7    22    1
    40    33    13    1
    41    13    31    1
    42    13    32    1
    43    14    35    1
    44    14    34    1
@<TRIPOS>MOLECULE
11996452_9_run_1.pdb
 42 44 0 0 0
SMALL
GASTEIGER

@<TRIPOS>ATOM
      1    O       28.1490    5.3960    4.8830 O.3     2  LIG2       -0.3886
      2    C       27.6920    2.4350    5.0500 C.3     2  LIG2       -0.0289
      3    C       28.4900    1.2410    4.5060 C.3     2  LIG2       -0.0284
      4    C       28.7650    2.6330    3.9760 C.3     2  LIG2       -0.0319
      5    C       26.2190    2.8830    4.7570 C.3     2  LIG2       -0.0294
      6    C       25.9990    4.4050    4.4630 C.3     2  LIG2       -0.0090
      7    C       28.3000    3.1760    2.6070 C.3     2  LIG2       -0.0468
      8    C       25.2920    2.0840    3.7950 C.3     2  LIG2       -0.0404
      9    C       27.1770    5.2600    3.8560 C.3     2  LIG2        0.0664
     10    C       24.6600    4.4440    3.6970 C.3     2  LIG2       -0.0471
     11    C       27.9050    4.6700    2.6070 C.3     2  LIG2       -0.0237
     12    C       29.5320    0.6540    5.4800 C.3     2  LIG2       -0.0593
     13    C       27.9550    0.1490    3.5480 C.3     2  LIG2       -0.0593
     14    C       24.5680    3.1290    2.9330 C.3     2  LIG2       -0.0498
     15    C       24.3330    1.1130    4.5120 C.3     2  LIG2       -0.0621
     16    C       26.7660    6.7240    3.5590 C.3     2  LIG2       -0.0358
     17    H       27.9720    2.7780    6.0470 H       2  LIG2        0.0312
     18    H       29.7180    3.0770    4.2680 H       2  LIG2        0.0309
     19    H       25.7500    2.7520    5.7350 H       2  LIG2        0.0310
     20    H       25.7850    4.8770    5.4260 H       2  LIG2        0.0331
     21    H       29.0990    3.0210    1.8810 H       2  LIG2        0.0269
     22    H       27.4620    2.6150    2.2110 H       2  LIG2        0.0269
     23    H       25.8530    1.4870    3.0950 H       2  LIG2        0.0301
     24    H       23.8320    4.5170    4.4050 H       2  LIG2        0.0269
     25    H       24.5580    5.2870    3.0170 H       2  LIG2        0.0269
     26    H       28.7990    5.2640    2.4030 H       2  LIG2        0.0293
     27    H       27.2670    4.8240    1.7350 H       2  LIG2        0.0293
     28    H       30.3580    0.1890    4.9420 H       2  LIG2        0.0235
     29    H       29.0820   -0.1010    6.1230 H       2  LIG2        0.0235
     30    H       29.9650    1.4170    6.1310 H       2  LIG2        0.0235
     31    H       28.7480   -0.5520    3.2860 H       2  LIG2        0.0235
     32    H       27.5900    0.5120    2.5930 H       2  LIG2        0.0235
     33    H       27.1640   -0.4310    4.0230 H       2  LIG2        0.0235
     34    H       25.0600    3.2270    1.9630 H       2  LIG2        0.0268
     35    H       23.5290    2.8650    2.7320 H       2  LIG2        0.0268
     36    H       23.6540    1.6430    5.1820 H       2  LIG2        0.0233
     37    H       24.8870    0.3850    5.1050 H       2  LIG2        0.0233
     38    H       23.7250    0.5580    3.7960 H       2  LIG2        0.0233
     39    H       26.1230    6.7980    2.6820 H       2  LIG2        0.0257
     40    H       27.6310    7.3560    3.3550 H       2  LIG2        0.0257
     41    H       26.2310    7.1710    4.3980 H       2  LIG2        0.0257
     42    H       27.7720    5.9230    5.5910 H       2  LIG2        0.2102
@<TRIPOS>BOND
     1    27    11    1
     2    21     7    1
     3    34    14    1
     4    22     7    1
     5    26    11    1
     6    32    13    1
     7     7    11    1
     8     7     4    1
     9    11     9    1
    10    39    16    1
    11    35    14    1
    12    14    10    1
    13    14     8    1
    14    25    10    1
    15    23     8    1
    16    31    13    1
    17    40    16    1
    18    13    33    1
    19    13     3    1
    20    16     9    1
    21    16    41    1
    22    10    24    1
    23    10     6    1
    24     8    15    1
    25     8     5    1
    26    38    15    1
    27     9     6    1
    28     9     1    1
    29     4    18    1
    30     4     3    1
    31     4     2    1
    32     6     5    1
    33     6    20    1
    34     3     2    1
    35     3    12    1
    36    15    37    1
    37    15    36    1
    38     5     2    1
    39     5    19    1
    40     1    42    1
    41    28    12    1
    42     2    17    1
    43    12    29    1
    44    12    30    1
@<TRIPOS>MOLECULE
11996452_9_run_3.pdb
 42 44 0 0 0
SMALL
GASTEIGER

@<TRIPOS>ATOM
      1    O       28.5990    3.7870    2.3470 O.3     2  LIG2       -0.3886
      2    C       29.4510    1.0480    3.2300 C.3     2  LIG2       -0.0289
      3    C       28.8950   -0.3490    2.9200 C.3     2  LIG2       -0.0284
      4    C       28.0580    0.8770    2.6190 C.3     2  LIG2       -0.0319
      5    C       29.6030    1.7940    4.6000 C.3     2  LIG2       -0.0294
      6    C       29.1280    3.2850    4.6380 C.3     2  LIG2       -0.0090
      7    C       26.8560    1.3660    3.4560 C.3     2  LIG2       -0.0468
      8    C       29.1800    1.1360    5.9460 C.3     2  LIG2       -0.0404
      9    C       28.0090    3.7740    3.6390 C.3     2  LIG2        0.0664
     10    C       28.8740    3.5540    6.1360 C.3     2  LIG2       -0.0471
     11    C       26.7170    2.9020    3.5500 C.3     2  LIG2       -0.0237
     12    C       29.5430   -1.0560    1.7120 C.3     2  LIG2       -0.0593
     13    C       28.3940   -1.3810    3.9590 C.3     2  LIG2       -0.0593
     14    C       28.4420    2.2240    6.7400 C.3     2  LIG2       -0.0498
     15    C       30.3460    0.4960    6.7240 C.3     2  LIG2       -0.0621
     16    C       27.6090    5.2530    3.8640 C.3     2  LIG2       -0.0358
     17    H       30.2110    1.4200    2.5410 H       2  LIG2        0.0312
     18    H       27.9200    1.1150    1.5630 H       2  LIG2        0.0309
     19    H       30.6890    1.8800    4.6840 H       2  LIG2        0.0310
     20    H       30.0030    3.8930    4.3890 H       2  LIG2        0.0331
     21    H       25.9410    0.9530    3.0280 H       2  LIG2        0.0269
     22    H       26.8800    0.9770    4.4680 H       2  LIG2        0.0269
     23    H       28.4520    0.3550    5.8030 H       2  LIG2        0.0301
     24    H       29.7970    3.8920    6.6120 H       2  LIG2        0.0269
     25    H       28.1280    4.3220    6.3330 H       2  LIG2        0.0269
     26    H       26.1150    3.2470    2.7050 H       2  LIG2        0.0293
     27    H       26.1040    3.1080    4.4280 H       2  LIG2        0.0293
     28    H       28.8490   -1.7560    1.2440 H       2  LIG2        0.0235
     29    H       30.4280   -1.6140    2.0170 H       2  LIG2        0.0235
     30    H       29.8550   -0.3510    0.9390 H       2  LIG2        0.0235
     31    H       28.0100   -2.2710    3.4600 H       2  LIG2        0.0235
     32    H       27.5730   -1.0460    4.5830 H       2  LIG2        0.0235
     33    H       29.2100   -1.7080    4.6050 H       2  LIG2        0.0235
     34    H       27.3620    2.1020    6.6370 H       2  LIG2        0.0268
     35    H       28.6610    2.1890    7.8080 H       2  LIG2        0.0268
     36    H       31.0990    1.2370    6.9970 H       2  LIG2        0.0233
     37    H       30.8370   -0.2740    6.1290 H       2  LIG2        0.0233
     38    H       29.9970    0.0260    7.6440 H       2  LIG2        0.0233
     39    H       27.0080    5.3830    4.7630 H       2  LIG2        0.0257
     40    H       27.0090    5.6420    3.0390 H       2  LIG2        0.0257
     41    H       28.4840    5.8980    3.9570 H       2  LIG2        0.0257
     42    H       29.3490    4.3850    2.3610 H       2  LIG2        0.2102
@<TRIPOS>BOND
     1    30    12    1
     2    28    12    1
     3    18     4    1
     4    12    29    1
     5    12     3    1
     6     1    42    1
     7     1     9    1
     8    17     2    1
     9     4     3    1
    10     4     2    1
    11     4     7    1
    12    26    11    1
    13     3     2    1
    14     3    13    1
    15    21     7    1
    16    40    16    1
    17     2     5    1
    18     7    11    1
    19     7    22    1
    20    31    13    1
    21    11     9    1
    22    11    27    1
    23     9    16    1
    24     9     6    1
    25    16    41    1
    26    16    39    1
    27    13    32    1
    28    13    33    1
    29    20     6    1
    30     5     6    1
    31     5    19    1
    32     5     8    1
    33     6    10    1
    34    23     8    1
    35     8    15    1
    36     8    14    1
    37    37    15    1
    38    10    25    1
    39    10    24    1
    40    10    14    1
    41    34    14    1
    42    15    36    1
    43    15    38    1
    44    14    35    1
@<TRIPOS>MOLECULE
11996452_9_run_22.pdb
 42 44 0 0 0
SMALL
GASTEIGER

@<TRIPOS>ATOM
      1    O       24.5520    5.3140    2.6210 O.3     2  LIG2       -0.3886
      2    C       25.5240    2.4750    2.5600 C.3     2  LIG2       -0.0289
      3    C       24.9240    1.1720    3.1080 C.3     2  LIG2       -0.0284
      4    C       24.3880    2.5070    3.5850 C.3     2  LIG2       -0.0319
      5    C       26.8830    3.1810    2.8950 C.3     2  LIG2       -0.0294
      6    C       26.8210    4.7240    3.1520 C.3     2  LIG2       -0.0090
      7    C       24.6930    3.1530    4.9540 C.3     2  LIG2       -0.0468
      8    C       27.8930    2.5780    3.9150 C.3     2  LIG2       -0.0404
      9    C       25.4880    5.3730    3.6880 C.3     2  LIG2        0.0664
     10    C       28.0990    5.0140    3.9670 C.3     2  LIG2       -0.0471
     11    C       24.8220    4.6930    4.9260 C.3     2  LIG2       -0.0237
     12    C       24.0420    0.3910    2.1120 C.3     2  LIG2       -0.0593
     13    C       25.5990    0.2130    4.1170 C.3     2  LIG2       -0.0593
     14    C       28.3860    3.7530    4.7720 C.3     2  LIG2       -0.0498
     15    C       29.0360    1.7740    3.2640 C.3     2  LIG2       -0.0621
     16    C       25.6250    6.8920    3.9570 C.3     2  LIG2       -0.0358
     17    H       25.2320    2.7410    1.5420 H       2  LIG2        0.0312
     18    H       23.3860    2.7700    3.2440 H       2  LIG2        0.0309
     19    H       27.4080    3.1120    1.9390 H       2  LIG2        0.0310
     20    H       26.9910    5.2040    2.1850 H       2  LIG2        0.0331
     21    H       23.9030    2.8770    5.6540 H       2  LIG2        0.0269
     22    H       25.5980    2.7570    5.3990 H       2  LIG2        0.0269
     23    H       27.4150    1.9090    4.6100 H       2  LIG2        0.0301
     24    H       28.9320    5.2150    3.2890 H       2  LIG2        0.0269
     25    H       28.0240    5.8770    4.6250 H       2  LIG2        0.0269
     26    H       23.8300    5.1260    5.0770 H       2  LIG2        0.0293
     27    H       25.3850    4.9760    5.8160 H       2  LIG2        0.0293
     28    H       23.2880   -0.2000    2.6330 H       2  LIG2        0.0235
     29    H       24.6440   -0.2890    1.5100 H       2  LIG2        0.0235
     30    H       23.5120    1.0510    1.4240 H       2  LIG2        0.0235
     31    H       24.9290   -0.6100    4.3700 H       2  LIG2        0.0235
     32    H       25.8540    0.6560    5.0750 H       2  LIG2        0.0235
     33    H       26.4980   -0.2300    3.6900 H       2  LIG2        0.0235
     34    H       27.8440    3.7850    5.7190 H       2  LIG2        0.0268
     35    H       29.4460    3.6800    5.0210 H       2  LIG2        0.0268
     36    H       29.6400    2.4000    2.6050 H       2  LIG2        0.0233
     37    H       28.6430    0.9480    2.6720 H       2  LIG2        0.0233
     38    H       29.7000    1.3510    4.0180 H       2  LIG2        0.0233
     39    H       26.2080    7.0980    4.8550 H       2  LIG2        0.0257
     40    H       24.6550    7.3680    4.1090 H       2  LIG2        0.0257
     41    H       26.1100    7.4070    3.1260 H       2  LIG2        0.0257
     42    H       23.6950    5.5900    2.9520 H       2  LIG2        0.2102
@<TRIPOS>BOND
     1    30    12    1
     2    29    12    1
     3    17     2    1
     4    19     5    1
     5    12    28    1
     6    12     3    1
     7    20     6    1
     8     2     5    1
     9     2     3    1
    10     2     4    1
    11    36    15    1
    12     1    42    1
    13     1     9    1
    14    37    15    1
    15     5     6    1
    16     5     8    1
    17     3     4    1
    18     3    13    1
    19    41    16    1
    20     6     9    1
    21     6    10    1
    22    18     4    1
    23    15     8    1
    24    15    38    1
    25    24    10    1
    26     4     7    1
    27     9    16    1
    28     9    11    1
    29    33    13    1
    30     8    23    1
    31     8    14    1
    32    16    40    1
    33    16    39    1
    34    10    25    1
    35    10    14    1
    36    13    31    1
    37    13    32    1
    38    14    35    1
    39    14    34    1
    40    11     7    1
    41    11    26    1
    42    11    27    1
    43     7    22    1
    44     7    21    1
