@<TRIPOS>MOLECULE
11996452_5_run_3.pdb
 42 44 0 0 0
SMALL
GASTEIGER

@<TRIPOS>ATOM
      1    O       30.8490    3.3880    5.2370 O.3     2  LIG2       -0.3886
      2    C       27.8740    1.8100    2.6690 C.3     2  LIG2       -0.0289
      3    C       26.4450    1.4200    3.0050 C.3     2  LIG2       -0.0284
      4    C       26.8990    2.8480    3.2700 C.3     2  LIG2       -0.0319
      5    C       29.2000    1.3660    3.3740 C.3     2  LIG2       -0.0294
      6    C       29.3570    1.4440    4.9160 C.3     2  LIG2       -0.0090
      7    C       27.1220    3.4280    4.6880 C.3     2  LIG2       -0.0468
      8    C       29.7910   -0.0060    2.9260 C.3     2  LIG2       -0.0404
      9    C       29.5490    2.8820    5.5010 C.3     2  LIG2        0.0664
     10    C       30.4870    0.4450    5.2260 C.3     2  LIG2       -0.0471
     11    C       28.5560    3.9340    4.9340 C.3     2  LIG2       -0.0237
     12    C       25.5170    1.2160    1.7920 C.3     2  LIG2       -0.0593
     13    C       26.0280    0.4830    4.1660 C.3     2  LIG2       -0.0593
     14    C       30.3060   -0.6780    4.2100 C.3     2  LIG2       -0.0498
     15    C       28.8490   -0.9340    2.1310 C.3     2  LIG2       -0.0621
     16    C       29.4370    2.8520    7.0440 C.3     2  LIG2       -0.0358
     17    H       28.0820    1.9320    1.6050 H       2  LIG2        0.0312
     18    H       26.4850    3.6050    2.6030 H       2  LIG2        0.0309
     19    H       29.9240    2.0950    3.0020 H       2  LIG2        0.0310
     20    H       28.4830    1.0200    5.3880 H       2  LIG2        0.0331
     21    H       26.4580    4.2890    4.7820 H       2  LIG2        0.0269
     22    H       26.8040    2.7580    5.4830 H       2  LIG2        0.0269
     23    H       30.6530    0.1840    2.2840 H       2  LIG2        0.0301
     24    H       31.4710    0.8990    5.1060 H       2  LIG2        0.0269
     25    H       30.4300    0.0640    6.2480 H       2  LIG2        0.0269
     26    H       28.9290    4.3360    3.9880 H       2  LIG2        0.0293
     27    H       28.5100    4.7940    5.6050 H       2  LIG2        0.0293
     28    H       24.4740    1.3870    2.0600 H       2  LIG2        0.0235
     29    H       25.6000    0.2000    1.4040 H       2  LIG2        0.0235
     30    H       25.7520    1.8940    0.9710 H       2  LIG2        0.0235
     31    H       24.9690    0.6160    4.3870 H       2  LIG2        0.0235
     32    H       26.5330    0.6390    5.1080 H       2  LIG2        0.0235
     33    H       26.1660   -0.5630    3.8970 H       2  LIG2        0.0235
     34    H       29.5850   -1.4050    4.5870 H       2  LIG2        0.0268
     35    H       31.2420   -1.2130    4.0420 H       2  LIG2        0.0268
     36    H       27.9690   -1.2120    2.7070 H       2  LIG2        0.0233
     37    H       29.3600   -1.8570    1.8540 H       2  LIG2        0.0233
     38    H       28.5130   -0.4660    1.2060 H       2  LIG2        0.0233
     39    H       28.4500    2.5140    7.3640 H       2  LIG2        0.0257
     40    H       29.5990    3.8360    7.4870 H       2  LIG2        0.0257
     41    H       30.1690    2.1790    7.4920 H       2  LIG2        0.0257
     42    H       30.9280    3.5440    4.2940 H       2  LIG2        0.2102
@<TRIPOS>BOND
     1    30    12    1
     2    38    15    1
     3    29    12    1
     4    17     2    1
     5    12    28    1
     6    12     3    1
     7    37    15    1
     8    15    36    1
     9    15     8    1
    10    23     8    1
    11    18     4    1
    12     2     3    1
    13     2     4    1
    14     2     5    1
    15     8     5    1
    16     8    14    1
    17    19     5    1
    18     3     4    1
    19     3    13    1
    20     4     7    1
    21     5     6    1
    22    33    13    1
    23    26    11    1
    24    35    14    1
    25    13    31    1
    26    13    32    1
    27    14    34    1
    28    14    10    1
    29    42     1    1
    30     7    21    1
    31     7    11    1
    32     7    22    1
    33     6    10    1
    34     6    20    1
    35     6     9    1
    36    11     9    1
    37    11    27    1
    38    24    10    1
    39    10    25    1
    40     1     9    1
    41     9    16    1
    42    16    39    1
    43    16    40    1
    44    16    41    1
@<TRIPOS>MOLECULE
11996452_5_run_5.pdb
 42 44 0 0 0
SMALL
GASTEIGER

@<TRIPOS>ATOM
      1    O       29.2340    2.2040    6.4550 O.3     2  LIG2       -0.3886
      2    C       25.6750    1.6640    4.2220 C.3     2  LIG2       -0.0289
      3    C       25.5170    1.1270    2.8100 C.3     2  LIG2       -0.0284
      4    C       26.1980    0.2560    3.8560 C.3     2  LIG2       -0.0319
      5    C       26.6010    2.8200    4.7310 C.3     2  LIG2       -0.0294
      6    C       28.1070    2.8690    4.3580 C.3     2  LIG2       -0.0090
      7    C       27.7130   -0.0600    3.8540 C.3     2  LIG2       -0.0468
      8    C       26.0460    4.2680    4.5680 C.3     2  LIG2       -0.0404
      9    C       29.0180    1.8370    5.1000 C.3     2  LIG2        0.0664
     10    C       28.4890    4.3480    4.5460 C.3     2  LIG2       -0.0471
     11    C       28.4430    0.3930    5.1340 C.3     2  LIG2       -0.0237
     12    C       24.0830    0.7230    2.4170 C.3     2  LIG2       -0.0593
     13    C       26.2900    1.6430    1.5710 C.3     2  LIG2       -0.0593
     14    C       27.2440    5.1300    4.1380 C.3     2  LIG2       -0.0498
     15    C       24.8430    4.4410    3.6170 C.3     2  LIG2       -0.0621
     16    C       30.4280    1.8110    4.4630 C.3     2  LIG2       -0.0358
     17    H       24.7600    1.6780    4.8160 H       2  LIG2        0.0312
     18    H       25.6230   -0.6060    4.1960 H       2  LIG2        0.0309
     19    H       26.6060    2.6630    5.8120 H       2  LIG2        0.0310
     20    H       28.2200    2.6930    3.2980 H       2  LIG2        0.0331
     21    H       27.8060   -1.1460    3.8010 H       2  LIG2        0.0269
     22    H       28.2270    0.2970    2.9650 H       2  LIG2        0.0269
     23    H       25.7190    4.6220    5.5480 H       2  LIG2        0.0301
     24    H       28.7420    4.5700    5.5840 H       2  LIG2        0.0269
     25    H       29.3490    4.6310    3.9360 H       2  LIG2        0.0269
     26    H       27.7450    0.2820    5.9670 H       2  LIG2        0.0293
     27    H       29.2450   -0.3170    5.3450 H       2  LIG2        0.0293
     28    H       24.0880   -0.0340    1.6330 H       2  LIG2        0.0235
     29    H       23.5220    1.5830    2.0490 H       2  LIG2        0.0235
     30    H       23.5230    0.3100    3.2570 H       2  LIG2        0.0235
     31    H       26.2370    0.9070    0.7690 H       2  LIG2        0.0235
     32    H       27.3440    1.8310    1.7120 H       2  LIG2        0.0235
     33    H       25.8490    2.5620    1.1860 H       2  LIG2        0.0235
     34    H       27.2450    5.2860    3.0570 H       2  LIG2        0.0268
     35    H       27.2260    6.1150    4.6050 H       2  LIG2        0.0268
     36    H       25.0840    4.1450    2.5990 H       2  LIG2        0.0233
     37    H       24.5230    5.4830    3.5850 H       2  LIG2        0.0233
     38    H       23.9860    3.8540    3.9450 H       2  LIG2        0.0233
     39    H       30.3870    1.4970    3.4190 H       2  LIG2        0.0257
     40    H       31.1000    1.1240    4.9790 H       2  LIG2        0.0257
     41    H       30.9020    2.7940    4.4860 H       2  LIG2        0.0257
     42    H       29.7950    1.5410    6.8630 H       2  LIG2        0.2102
@<TRIPOS>BOND
     1    31    13    1
     2    33    13    1
     3    13    32    1
     4    13     3    1
     5    28    12    1
     6    29    12    1
     7    12     3    1
     8    12    30    1
     9    36    15    1
    10     3     4    1
    11     3     2    1
    12    22     7    1
    13    34    14    1
    14    20     6    1
    15    39    16    1
    16    37    15    1
    17    15    38    1
    18    15     8    1
    19    21     7    1
    20     7     4    1
    21     7    11    1
    22     4    18    1
    23     4     2    1
    24    25    10    1
    25    14    10    1
    26    14     8    1
    27    14    35    1
    28     2     5    1
    29     2    17    1
    30     6    10    1
    31     6     5    1
    32     6     9    1
    33    16    41    1
    34    16    40    1
    35    16     9    1
    36    10    24    1
    37     8     5    1
    38     8    23    1
    39     5    19    1
    40     9    11    1
    41     9     1    1
    42    11    27    1
    43    11    26    1
    44     1    42    1
@<TRIPOS>MOLECULE
11996452_5_run_3.pdb
 42 44 0 0 0
SMALL
GASTEIGER

@<TRIPOS>ATOM
      1    O       23.0230    3.6890    2.8440 O.3     2  LIG2       -0.3886
      2    C       27.1480    2.7280    2.8460 C.3     2  LIG2       -0.0289
      3    C       27.9770    2.1240    3.9650 C.3     2  LIG2       -0.0284
      4    C       26.7610    1.3630    3.4580 C.3     2  LIG2       -0.0319
      5    C       26.2150    3.9860    2.8880 C.3     2  LIG2       -0.0294
      6    C       25.1520    4.1620    4.0060 C.3     2  LIG2       -0.0090
      7    C       25.4550    1.1910    4.2720 C.3     2  LIG2       -0.0468
      8    C       26.9150    5.3670    2.7050 C.3     2  LIG2       -0.0404
      9    C       23.8870    3.2510    3.8810 C.3     2  LIG2        0.0664
     10    C       24.8800    5.6770    4.0240 C.3     2  LIG2       -0.0471
     11    C       24.2070    1.7620    3.5710 C.3     2  LIG2       -0.0237
     12    C       29.3520    1.5710    3.5400 C.3     2  LIG2       -0.0593
     13    C       28.0380    2.6620    5.4160 C.3     2  LIG2       -0.0593
     14    C       26.2230    6.3210    3.6930 C.3     2  LIG2       -0.0498
     15    C       28.4490    5.3890    2.8660 C.3     2  LIG2       -0.0621
     16    C       23.0380    3.3340    5.1720 C.3     2  LIG2       -0.0358
     17    H       27.6030    2.6790    1.8550 H       2  LIG2        0.0312
     18    H       26.9770    0.4640    2.8790 H       2  LIG2        0.0309
     19    H       25.6200    3.8720    1.9790 H       2  LIG2        0.0310
     20    H       25.6030    3.9560    4.9660 H       2  LIG2        0.0331
     21    H       25.2960    0.1180    4.3860 H       2  LIG2        0.0269
     22    H       25.5320    1.5600    5.2920 H       2  LIG2        0.0269
     23    H       26.7040    5.7270    1.6960 H       2  LIG2        0.0301
     24    H       24.1380    5.9630    3.2770 H       2  LIG2        0.0269
     25    H       24.5100    6.0160    4.9940 H       2  LIG2        0.0269
     26    H       24.3400    1.6180    2.4960 H       2  LIG2        0.0293
     27    H       23.3490    1.1400    3.8320 H       2  LIG2        0.0293
     28    H       29.6880    0.7880    4.2200 H       2  LIG2        0.0235
     29    H       30.1050    2.3590    3.5390 H       2  LIG2        0.0235
     30    H       29.3340    1.1400    2.5390 H       2  LIG2        0.0235
     31    H       28.4340    1.8930    6.0800 H       2  LIG2        0.0235
     32    H       27.0950    2.9530    5.8560 H       2  LIG2        0.0235
     33    H       28.7060    3.5190    5.4910 H       2  LIG2        0.0235
     34    H       26.8130    6.4340    4.6050 H       2  LIG2        0.0268
     35    H       26.0890    7.3180    3.2710 H       2  LIG2        0.0268
     36    H       28.7590    5.0770    3.8610 H       2  LIG2        0.0233
     37    H       28.8410    6.3930    2.7050 H       2  LIG2        0.0233
     38    H       28.9370    4.7360    2.1420 H       2  LIG2        0.0233
     39    H       23.5960    2.9770    6.0380 H       2  LIG2        0.0257
     40    H       22.1290    2.7340    5.1050 H       2  LIG2        0.0257
     41    H       22.7270    4.3570    5.3880 H       2  LIG2        0.0257
     42    H       22.2340    3.1430    2.8550 H       2  LIG2        0.2102
@<TRIPOS>BOND
     1    23     8    1
     2    17     2    1
     3    19     5    1
     4    38    15    1
     5    26    11    1
     6    30    12    1
     7    37    15    1
     8     8    15    1
     9     8     5    1
    10     8    14    1
    11     1    42    1
    12     1     9    1
    13     2     5    1
    14     2     4    1
    15     2     3    1
    16    15    36    1
    17    18     4    1
    18     5     6    1
    19    35    14    1
    20    24    10    1
    21     4     3    1
    22     4     7    1
    23    29    12    1
    24    12     3    1
    25    12    28    1
    26    11    27    1
    27    11     9    1
    28    11     7    1
    29    14    10    1
    30    14    34    1
    31     9     6    1
    32     9    16    1
    33     3    13    1
    34     6    10    1
    35     6    20    1
    36    10    25    1
    37     7    21    1
    38     7    22    1
    39    40    16    1
    40    16    41    1
    41    16    39    1
    42    13    33    1
    43    13    32    1
    44    13    31    1
@<TRIPOS>MOLECULE
11996452_5_run_21.pdb
 42 44 0 0 0
SMALL
GASTEIGER

@<TRIPOS>ATOM
      1    O       30.5270    0.4620    4.8330 O.3     2  LIG2       -0.3886
      2    C       27.5830    3.1210    3.3520 C.3     2  LIG2       -0.0289
      3    C       26.6660    4.0460    4.1320 C.3     2  LIG2       -0.0284
      4    C       28.1710    4.1930    4.2960 C.3     2  LIG2       -0.0319
      5    C       27.8150    1.5840    3.5430 C.3     2  LIG2       -0.0294
      6    C       28.1140    0.9830    4.9430 C.3     2  LIG2       -0.0090
      7    C       28.9370    3.7950    5.5810 C.3     2  LIG2       -0.0468
      8    C       26.7800    0.6410    2.8570 C.3     2  LIG2       -0.0404
      9    C       29.5520    1.2510    5.4970 C.3     2  LIG2        0.0664
     10    C       27.7220   -0.4990    4.8040 C.3     2  LIG2       -0.0471
     11    C       30.0230    2.7250    5.3510 C.3     2  LIG2       -0.0237
     12    C       25.9630    5.1340    3.2960 C.3     2  LIG2       -0.0593
     13    C       25.7690    3.6160    5.3190 C.3     2  LIG2       -0.0593
     14    C       26.5270   -0.5000    3.8560 C.3     2  LIG2       -0.0498
     15    C       25.4640    1.2920    2.3830 C.3     2  LIG2       -0.0621
     16    C       29.6400    0.8310    6.9830 C.3     2  LIG2       -0.0358
     17    H       27.6680    3.3440    2.2870 H       2  LIG2        0.0312
     18    H       28.6090    5.0850    3.8460 H       2  LIG2        0.0309
     19    H       28.7370    1.4100    2.9840 H       2  LIG2        0.0310
     20    H       27.4140    1.3830    5.6620 H       2  LIG2        0.0331
     21    H       29.4440    4.6940    5.9350 H       2  LIG2        0.0269
     22    H       28.2830    3.5150    6.4030 H       2  LIG2        0.0269
     23    H       27.2470    0.2070    1.9700 H       2  LIG2        0.0301
     24    H       28.5320   -1.0920    4.3790 H       2  LIG2        0.0269
     25    H       27.4620   -0.9470    5.7640 H       2  LIG2        0.0269
     26    H       30.4420    2.8930    4.3550 H       2  LIG2        0.0293
     27    H       30.8490    2.9170    6.0380 H       2  LIG2        0.0293
     28    H       25.7070    5.9980    3.9100 H       2  LIG2        0.0235
     29    H       25.0420    4.7520    2.8550 H       2  LIG2        0.0235
     30    H       26.5870    5.4960    2.4780 H       2  LIG2        0.0235
     31    H       25.4660    4.4920    5.8910 H       2  LIG2        0.0235
     32    H       26.2210    2.9510    6.0400 H       2  LIG2        0.0235
     33    H       24.8560    3.1360    4.9690 H       2  LIG2        0.0235
     34    H       25.6080   -0.3290    4.4200 H       2  LIG2        0.0268
     35    H       26.4210   -1.4640    3.3550 H       2  LIG2        0.0268
     36    H       24.9040    1.7260    3.2090 H       2  LIG2        0.0233
     37    H       24.8180    0.5550    1.9060 H       2  LIG2        0.0233
     38    H       25.6470    2.0780    1.6500 H       2  LIG2        0.0233
     39    H       28.9550    1.4110    7.6020 H       2  LIG2        0.0257
     40    H       30.6420    0.9750    7.3920 H       2  LIG2        0.0257
     41    H       29.3900   -0.2210    7.1230 H       2  LIG2        0.0257
     42    H       31.3940    0.7110    5.1600 H       2  LIG2        0.2102
@<TRIPOS>BOND
     1    38    15    1
     2    37    15    1
     3    23     8    1
     4    17     2    1
     5    15     8    1
     6    15    36    1
     7    30    12    1
     8    29    12    1
     9     8     5    1
    10     8    14    1
    11    19     5    1
    12    12    28    1
    13    12     3    1
    14     2     5    1
    15     2     3    1
    16     2     4    1
    17    35    14    1
    18     5     6    1
    19    18     4    1
    20    14    34    1
    21    14    10    1
    22     3     4    1
    23     3    13    1
    24     4     7    1
    25    26    11    1
    26    24    10    1
    27    10     6    1
    28    10    25    1
    29     1    42    1
    30     1     9    1
    31     6     9    1
    32     6    20    1
    33    33    13    1
    34    13    31    1
    35    13    32    1
    36    11     9    1
    37    11     7    1
    38    11    27    1
    39     9    16    1
    40     7    21    1
    41     7    22    1
    42    16    41    1
    43    16    40    1
    44    16    39    1
@<TRIPOS>MOLECULE
11996452_5_run_18.pdb
 42 44 0 0 0
SMALL
GASTEIGER

@<TRIPOS>ATOM
      1    O       28.1350    4.7990    4.0890 O.3     2  LIG2       -0.3886
      2    C       29.2940    0.7820    3.4170 C.3     2  LIG2       -0.0289
      3    C       28.4120   -0.4490    3.2990 C.3     2  LIG2       -0.0284
      4    C       28.1850    0.7110    2.3420 C.3     2  LIG2       -0.0319
      5    C       29.3230    1.8580    4.5550 C.3     2  LIG2       -0.0294
      6    C       28.0190    2.5300    5.0610 C.3     2  LIG2       -0.0090
      7    C       26.9510    1.6440    2.4030 C.3     2  LIG2       -0.0468
      8    C       30.1700    1.5040    5.8150 C.3     2  LIG2       -0.0404
      9    C       27.3900    3.5910    4.0980 C.3     2  LIG2        0.0664
     10    C       28.3850    3.0430    6.4650 C.3     2  LIG2       -0.0471
     11    C       27.3050    3.1290    2.6160 C.3     2  LIG2       -0.0237
     12    C       29.0990   -1.6950    2.7060 C.3     2  LIG2       -0.0593
     13    C       27.3280   -0.8680    4.3230 C.3     2  LIG2       -0.0593
     14    C       29.3570    2.0060    7.0200 C.3     2  LIG2       -0.0498
     15    C       30.5810    0.0250    5.9750 C.3     2  LIG2       -0.0621
     16    C       25.9800    3.9920    4.5910 C.3     2  LIG2       -0.0358
     17    H       30.3110    0.6600    3.0420 H       2  LIG2        0.0312
     18    H       28.4870    0.5350    1.3090 H       2  LIG2        0.0309
     19    H       29.8750    2.6790    4.0910 H       2  LIG2        0.0310
     20    H       27.2690    1.7720    5.2360 H       2  LIG2        0.0331
     21    H       26.4540    1.5700    1.4340 H       2  LIG2        0.0269
     22    H       26.1980    1.3170    3.1150 H       2  LIG2        0.0269
     23    H       31.0970    2.0800    5.7780 H       2  LIG2        0.0301
     24    H       28.8690    4.0200    6.4240 H       2  LIG2        0.0269
     25    H       27.5090    3.1430    7.1080 H       2  LIG2        0.0269
     26    H       28.2520    3.3170    2.1050 H       2  LIG2        0.0293
     27    H       26.5740    3.7400    2.0830 H       2  LIG2        0.0293
     28    H       28.3730   -2.3590    2.2370 H       2  LIG2        0.0235
     29    H       29.6180   -2.2610    3.4810 H       2  LIG2        0.0235
     30    H       29.8370   -1.4390    1.9450 H       2  LIG2        0.0235
     31    H       26.6420   -1.5810    3.8650 H       2  LIG2        0.0235
     32    H       26.6990   -0.0760    4.7010 H       2  LIG2        0.0235
     33    H       27.7710   -1.3660    5.1850 H       2  LIG2        0.0235
     34    H       28.8010    1.1890    7.4830 H       2  LIG2        0.0268
     35    H       29.9970    2.4380    7.7910 H       2  LIG2        0.0268
     36    H       29.7160   -0.6300    6.0580 H       2  LIG2        0.0233
     37    H       31.1800   -0.1140    6.8750 H       2  LIG2        0.0233
     38    H       31.1840   -0.3160    5.1340 H       2  LIG2        0.0233
     39    H       25.3030    3.1370    4.5980 H       2  LIG2        0.0257
     40    H       25.5250    4.7570    3.9590 H       2  LIG2        0.0257
     41    H       26.0030    4.3930    5.6050 H       2  LIG2        0.0257
     42    H       29.0040    4.6180    3.7250 H       2  LIG2        0.2102
@<TRIPOS>BOND
     1    18     4    1
     2    21     7    1
     3    30    12    1
     4    27    11    1
     5    26    11    1
     6    28    12    1
     7     4     7    1
     8     4     3    1
     9     4     2    1
    10     7    11    1
    11     7    22    1
    12    11     9    1
    13    12     3    1
    14    12    29    1
    15    17     2    1
    16     3     2    1
    17     3    13    1
    18     2     5    1
    19    42     1    1
    20    31    13    1
    21    40    16    1
    22     1     9    1
    23    19     5    1
    24     9    16    1
    25     9     6    1
    26    13    32    1
    27    13    33    1
    28     5     6    1
    29     5     8    1
    30    16    39    1
    31    16    41    1
    32     6    20    1
    33     6    10    1
    34    38    15    1
    35    23     8    1
    36     8    15    1
    37     8    14    1
    38    15    36    1
    39    15    37    1
    40    24    10    1
    41    10    14    1
    42    10    25    1
    43    14    34    1
    44    14    35    1
@<TRIPOS>MOLECULE
11996452_5_run_1.pdb
 42 44 0 0 0
SMALL
GASTEIGER

@<TRIPOS>ATOM
      1    O       25.6980    7.1430    4.6430 O.3     2  LIG2       -0.3886
      2    C       26.2490    2.9440    4.6160 C.3     2  LIG2       -0.0289
      3    C       26.7000    2.0570    3.4690 C.3     2  LIG2       -0.0284
      4    C       27.6060    3.1930    3.9200 C.3     2  LIG2       -0.0319
      5    C       25.0880    3.9960    4.6410 C.3     2  LIG2       -0.0294
      6    C       24.9500    5.0680    3.5280 C.3     2  LIG2       -0.0090
      7    C       27.8550    4.4740    3.0870 C.3     2  LIG2       -0.0468
      8    C       23.6590    3.4360    4.9110 C.3     2  LIG2       -0.0404
      9    C       25.9870    6.2380    3.5880 C.3     2  LIG2        0.0664
     10    C       23.4710    5.4890    3.5980 C.3     2  LIG2       -0.0471
     11    C       27.4530    5.7740    3.8110 C.3     2  LIG2       -0.0237
     12    C       27.1410    0.6360    3.8700 C.3     2  LIG2       -0.0593
     13    C       26.0730    2.0470    2.0530 C.3     2  LIG2       -0.0593
     14    C       22.7200    4.2160    3.9770 C.3     2  LIG2       -0.0498
     15    C       23.4770    1.9100    4.7640 C.3     2  LIG2       -0.0621
     16    C       25.9100    7.0890    2.2980 C.3     2  LIG2       -0.0358
     17    H       26.3120    2.4880    5.6050 H       2  LIG2        0.0312
     18    H       28.5120    2.8910    4.4460 H       2  LIG2        0.0309
     19    H       25.3140    4.5780    5.5370 H       2  LIG2        0.0310
     20    H       25.0530    4.5980    2.5610 H       2  LIG2        0.0331
     21    H       28.9300    4.5270    2.9080 H       2  LIG2        0.0269
     22    H       27.4200    4.4320    2.0920 H       2  LIG2        0.0269
     23    H       23.3820    3.6820    5.9380 H       2  LIG2        0.0301
     24    H       23.3040    6.2560    4.3540 H       2  LIG2        0.0269
     25    H       23.1120    5.8880    2.6470 H       2  LIG2        0.0269
     26    H       27.6480    5.6290    4.8770 H       2  LIG2        0.0293
     27    H       28.1390    6.5670    3.5070 H       2  LIG2        0.0293
     28    H       27.8450    0.2230    3.1480 H       2  LIG2        0.0235
     29    H       26.2840   -0.0370    3.9250 H       2  LIG2        0.0235
     30    H       27.6310    0.6130    4.8440 H       2  LIG2        0.0235
     31    H       26.7580    1.5750    1.3480 H       2  LIG2        0.0235
     32    H       25.8490    3.0130    1.6240 H       2  LIG2        0.0235
     33    H       25.1510    1.4660    2.0340 H       2  LIG2        0.0235
     34    H       22.4940    3.6390    3.0780 H       2  LIG2        0.0268
     35    H       21.7680    4.4480    4.4570 H       2  LIG2        0.0268
     36    H       23.6960    1.5700    3.7540 H       2  LIG2        0.0233
     37    H       22.4510    1.6200    4.9880 H       2  LIG2        0.0233
     38    H       24.1210    1.3620    5.4520 H       2  LIG2        0.0233
     39    H       26.1580    6.4970    1.4160 H       2  LIG2        0.0257
     40    H       26.5990    7.9350    2.3220 H       2  LIG2        0.0257
     41    H       24.9120    7.4990    2.1410 H       2  LIG2        0.0257
     42    H       26.0040    6.7570    5.4660 H       2  LIG2        0.2102
@<TRIPOS>BOND
     1    31    13    1
     2    39    16    1
     3    32    13    1
     4    33    13    1
     5    13     3    1
     6    22     7    1
     7    41    16    1
     8    16    40    1
     9    16     9    1
    10    20     6    1
    11    25    10    1
    12    21     7    1
    13    34    14    1
    14     7    11    1
    15     7     4    1
    16    28    12    1
    17     3    12    1
    18     3     4    1
    19     3     2    1
    20    27    11    1
    21     6     9    1
    22     6    10    1
    23     6     5    1
    24     9    11    1
    25     9     1    1
    26    10    14    1
    27    10    24    1
    28    36    15    1
    29    11    26    1
    30    12    29    1
    31    12    30    1
    32     4    18    1
    33     4     2    1
    34    14    35    1
    35    14     8    1
    36     2     5    1
    37     2    17    1
    38     5     8    1
    39     5    19    1
    40     1    42    1
    41    15     8    1
    42    15    37    1
    43    15    38    1
    44     8    23    1
@<TRIPOS>MOLECULE
11996452_5_run_22.pdb
 42 44 0 0 0
SMALL
GASTEIGER

@<TRIPOS>ATOM
      1    O       26.1520    4.3660    4.8920 O.3     2  LIG2       -0.3886
      2    C       28.4380    0.8140    5.2000 C.3     2  LIG2       -0.0289
      3    C       29.7050    0.4380    4.4540 C.3     2  LIG2       -0.0284
      4    C       29.6950    1.7100    5.2890 C.3     2  LIG2       -0.0319
      5    C       27.0690    1.3060    4.6190 C.3     2  LIG2       -0.0294
      6    C       27.0040    2.4550    3.5770 C.3     2  LIG2       -0.0090
      7    C       29.7060    3.1350    4.6830 C.3     2  LIG2       -0.0468
      8    C       26.0900    0.1950    4.1310 C.3     2  LIG2       -0.0404
      9    C       27.2590    3.8910    4.1420 C.3     2  LIG2        0.0664
     10    C       25.6470    2.2470    2.8790 C.3     2  LIG2       -0.0471
     11    C       28.4900    3.9910    5.0850 C.3     2  LIG2       -0.0237
     12    C       30.4860   -0.7540    5.0410 C.3     2  LIG2       -0.0593
     13    C       29.8810    0.4910    2.9160 C.3     2  LIG2       -0.0593
     14    C       25.4550    0.7350    2.8390 C.3     2  LIG2       -0.0498
     15    C       26.6910   -1.2120    3.9310 C.3     2  LIG2       -0.0621
     16    C       27.4210    4.9020    2.9820 C.3     2  LIG2       -0.0358
     17    H       28.2310    0.2170    6.0900 H       2  LIG2        0.0312
     18    H       30.2820    1.6750    6.2070 H       2  LIG2        0.0309
     19    H       26.5730    1.7240    5.4980 H       2  LIG2        0.0310
     20    H       27.7370    2.2800    2.8020 H       2  LIG2        0.0331
     21    H       30.5930    3.6340    5.0750 H       2  LIG2        0.0269
     22    H       29.8490    3.1430    3.6050 H       2  LIG2        0.0269
     23    H       25.2950    0.0900    4.8710 H       2  LIG2        0.0301
     24    H       24.8320    2.7100    3.4370 H       2  LIG2        0.0269
     25    H       25.6330    2.6720    1.8730 H       2  LIG2        0.0269
     26    H       28.2120    3.7070    6.1030 H       2  LIG2        0.0293
     27    H       28.8100    5.0320    5.1630 H       2  LIG2        0.0293
     28    H       31.5430   -0.6990    4.7830 H       2  LIG2        0.0235
     29    H       30.0970   -1.7000    4.6610 H       2  LIG2        0.0235
     30    H       30.4240   -0.7950    6.1290 H       2  LIG2        0.0235
     31    H       30.9410    0.4830    2.6630 H       2  LIG2        0.0235
     32    H       29.4800    1.3640    2.4210 H       2  LIG2        0.0235
     33    H       29.4350   -0.3810    2.4380 H       2  LIG2        0.0235
     34    H       25.9500    0.3220    1.9580 H       2  LIG2        0.0268
     35    H       24.3980    0.4730    2.7650 H       2  LIG2        0.0268
     36    H       27.4750   -1.2170    3.1780 H       2  LIG2        0.0233
     37    H       25.9250   -1.9160    3.6050 H       2  LIG2        0.0233
     38    H       27.1100   -1.6040    4.8580 H       2  LIG2        0.0233
     39    H       28.2790    4.6550    2.3560 H       2  LIG2        0.0257
     40    H       27.5670    5.9220    3.3420 H       2  LIG2        0.0257
     41    H       26.5430    4.9190    2.3330 H       2  LIG2        0.0257
     42    H       26.3530    5.2500    5.2040 H       2  LIG2        0.2102
@<TRIPOS>BOND
     1    25    10    1
     2    34    14    1
     3    41    16    1
     4    39    16    1
     5    32    13    1
     6    33    13    1
     7    31    13    1
     8    35    14    1
     9    20     6    1
    10    14    10    1
    11    14     8    1
    12    10    24    1
    13    10     6    1
    14    13     3    1
    15    16    40    1
    16    16     9    1
    17    36    15    1
    18     6     9    1
    19     6     5    1
    20    22     7    1
    21    37    15    1
    22    15     8    1
    23    15    38    1
    24     8     5    1
    25     8    23    1
    26     9     1    1
    27     9    11    1
    28     3    12    1
    29     3     2    1
    30     3     4    1
    31     5     2    1
    32     5    19    1
    33    29    12    1
    34     7    21    1
    35     7    11    1
    36     7     4    1
    37    28    12    1
    38     1    42    1
    39    12    30    1
    40    11    27    1
    41    11    26    1
    42     2     4    1
    43     2    17    1
    44     4    18    1
@<TRIPOS>MOLECULE
11996452_5_run_4.pdb
 42 44 0 0 0
SMALL
GASTEIGER

@<TRIPOS>ATOM
      1    O       28.0990    2.5120    7.5400 O.3     2  LIG2       -0.3886
      2    C       28.3110   -0.1810    4.2790 C.3     2  LIG2       -0.0289
      3    C       29.4480   -0.3850    3.2930 C.3     2  LIG2       -0.0284
      4    C       29.7210   -0.5710    4.7780 C.3     2  LIG2       -0.0319
      5    C       27.5920    1.1510    4.6820 C.3     2  LIG2       -0.0294
      6    C       28.4020    2.4110    5.0890 C.3     2  LIG2       -0.0090
      7    C       30.5690    0.4090    5.6240 C.3     2  LIG2       -0.0468
      8    C       26.4520    1.6310    3.7330 C.3     2  LIG2       -0.0404
      9    C       29.0610    2.3580    6.5070 C.3     2  LIG2        0.0664
     10    C       27.4220    3.5750    4.8550 C.3     2  LIG2       -0.0471
     11    C       29.8050    1.0280    6.8100 C.3     2  LIG2       -0.0237
     12    C       29.3650   -1.6730    2.4500 C.3     2  LIG2       -0.0593
     13    C       30.1380    0.7430    2.4860 C.3     2  LIG2       -0.0593
     14    C       26.6040    3.1580    3.6370 C.3     2  LIG2       -0.0498
     15    C       26.3920    0.9720    2.3390 C.3     2  LIG2       -0.0621
     16    C       30.0380    3.5440    6.6880 C.3     2  LIG2       -0.0358
     17    H       27.5720   -0.9840    4.3040 H       2  LIG2        0.0312
     18    H       29.8810   -1.6000    5.1020 H       2  LIG2        0.0309
     19    H       27.0680    0.8710    5.5990 H       2  LIG2        0.0310
     20    H       29.1950    2.5750    4.3730 H       2  LIG2        0.0331
     21    H       31.3940   -0.1710    6.0410 H       2  LIG2        0.0269
     22    H       31.0570    1.1790    5.0310 H       2  LIG2        0.0269
     23    H       25.4950    1.4240    4.2150 H       2  LIG2        0.0301
     24    H       26.7630    3.7250    5.7110 H       2  LIG2        0.0269
     25    H       27.9410    4.5190    4.6760 H       2  LIG2        0.0269
     26    H       29.1030    0.2750    7.1770 H       2  LIG2        0.0293
     27    H       30.5070    1.1790    7.6330 H       2  LIG2        0.0293
     28    H       30.3540   -1.9940    2.1220 H       2  LIG2        0.0235
     29    H       28.7510   -1.5180    1.5620 H       2  LIG2        0.0235
     30    H       28.9260   -2.5040    3.0040 H       2  LIG2        0.0235
     31    H       31.0990    0.3930    2.1090 H       2  LIG2        0.0235
     32    H       30.3620    1.6480    3.0310 H       2  LIG2        0.0235
     33    H       29.5430    1.0280    1.6200 H       2  LIG2        0.0235
     34    H       27.1300    3.4420    2.7240 H       2  LIG2        0.0268
     35    H       25.6370    3.6630    3.6200 H       2  LIG2        0.0268
     36    H       27.2960    1.1550    1.7630 H       2  LIG2        0.0233
     37    H       25.5550    1.3640    1.7620 H       2  LIG2        0.0233
     38    H       26.2510   -0.1070    2.4130 H       2  LIG2        0.0233
     39    H       30.8520    3.5020    5.9640 H       2  LIG2        0.0257
     40    H       30.4900    3.5560    7.6810 H       2  LIG2        0.0257
     41    H       29.5380    4.5050    6.5570 H       2  LIG2        0.0257
     42    H       27.3830    1.8930    7.3830 H       2  LIG2        0.2102
@<TRIPOS>BOND
     1    29    12    1
     2    33    13    1
     3    37    15    1
     4    36    15    1
     5    31    13    1
     6    28    12    1
     7    15    38    1
     8    15     8    1
     9    12    30    1
    10    12     3    1
    11    13    32    1
    12    13     3    1
    13    34    14    1
    14     3     2    1
    15     3     4    1
    16    35    14    1
    17    14     8    1
    18    14    10    1
    19     8    23    1
    20     8     5    1
    21     2    17    1
    22     2     5    1
    23     2     4    1
    24    20     6    1
    25    25    10    1
    26     5     6    1
    27     5    19    1
    28     4    18    1
    29     4     7    1
    30    10     6    1
    31    10    24    1
    32    22     7    1
    33     6     9    1
    34     7    21    1
    35     7    11    1
    36    39    16    1
    37     9    16    1
    38     9    11    1
    39     9     1    1
    40    41    16    1
    41    16    40    1
    42    11    26    1
    43    11    27    1
    44    42     1    1
@<TRIPOS>MOLECULE
11996452_5_run_13.pdb
 42 44 0 0 0
SMALL
GASTEIGER

@<TRIPOS>ATOM
      1    O       28.5990   -0.2060    1.5820 O.3     2  LIG2       -0.3886
      2    C       29.3230    2.6640    4.6100 C.3     2  LIG2       -0.0289
      3    C       29.5810    2.4340    6.0890 C.3     2  LIG2       -0.0284
      4    C       30.5060    1.7820    5.0710 C.3     2  LIG2       -0.0319
      5    C       28.1430    2.1310    3.7290 C.3     2  LIG2       -0.0294
      6    C       27.7420    0.6320    3.7430 C.3     2  LIG2       -0.0090
      7    C       30.5290    0.2610    4.7840 C.3     2  LIG2       -0.0468
      8    C       26.8210    2.9550    3.7780 C.3     2  LIG2       -0.0404
      9    C       28.7170   -0.3340    2.9900 C.3     2  LIG2        0.0664
     10    C       26.2870    0.6310    3.2390 C.3     2  LIG2       -0.0471
     11    C       30.2180   -0.0990    3.3180 C.3     2  LIG2       -0.0237
     12    C       30.1560    3.6430    6.8520 C.3     2  LIG2       -0.0593
     13    C       28.6910    1.5800    7.0250 C.3     2  LIG2       -0.0593
     14    C       25.6830    1.9210    3.7860 C.3     2  LIG2       -0.0498
     15    C       26.6840    3.9680    4.9330 C.3     2  LIG2       -0.0621
     16    C       28.3510   -1.8060    3.2920 C.3     2  LIG2       -0.0358
     17    H       29.5990    3.6530    4.2410 H       2  LIG2        0.0312
     18    H       31.5100    2.2030    5.0100 H       2  LIG2        0.0309
     19    H       28.5130    2.2910    2.7130 H       2  LIG2        0.0310
     20    H       27.6750    0.2870    4.7650 H       2  LIG2        0.0331
     21    H       31.5450   -0.0810    4.9890 H       2  LIG2        0.0269
     22    H       29.9100   -0.3160    5.4660 H       2  LIG2        0.0269
     23    H       26.7400    3.5290    2.8520 H       2  LIG2        0.0301
     24    H       26.2380    0.6310    2.1500 H       2  LIG2        0.0269
     25    H       25.7320   -0.2420    3.5880 H       2  LIG2        0.0269
     26    H       30.6230    0.6990    2.6910 H       2  LIG2        0.0293
     27    H       30.7950   -0.9860    3.0490 H       2  LIG2        0.0293
     28    H       30.7230    3.3240    7.7270 H       2  LIG2        0.0235
     29    H       29.3570    4.3030    7.1940 H       2  LIG2        0.0235
     30    H       30.8270    4.2420    6.2360 H       2  LIG2        0.0235
     31    H       29.2450    1.3170    7.9250 H       2  LIG2        0.0235
     32    H       28.3440    0.6390    6.6230 H       2  LIG2        0.0235
     33    H       27.8100    2.1350    7.3460 H       2  LIG2        0.0235
     34    H       25.3130    1.7550    4.7990 H       2  LIG2        0.0268
     35    H       24.8340    2.2450    3.1820 H       2  LIG2        0.0268
     36    H       26.7160    3.4830    5.9060 H       2  LIG2        0.0233
     37    H       25.7350    4.5010    4.8690 H       2  LIG2        0.0233
     38    H       27.4740    4.7190    4.9040 H       2  LIG2        0.0233
     39    H       28.4480   -2.0310    4.3550 H       2  LIG2        0.0257
     40    H       28.9920   -2.5070    2.7550 H       2  LIG2        0.0257
     41    H       27.3230   -2.0360    3.0070 H       2  LIG2        0.0257
     42    H       29.1570   -0.8690    1.1690 H       2  LIG2        0.2102
@<TRIPOS>BOND
     1    42     1    1
     2     1     9    1
     3    24    10    1
     4    26    11    1
     5    19     5    1
     6    40    16    1
     7    23     8    1
     8     9    16    1
     9     9    11    1
    10     9     6    1
    11    41    16    1
    12    27    11    1
    13    35    14    1
    14    10    25    1
    15    10     6    1
    16    10    14    1
    17    16    39    1
    18    11     7    1
    19     5     6    1
    20     5     8    1
    21     5     2    1
    22     6    20    1
    23     8    14    1
    24     8    15    1
    25    14    34    1
    26    17     2    1
    27     2     4    1
    28     2     3    1
    29     7    21    1
    30     7     4    1
    31     7    22    1
    32    37    15    1
    33    38    15    1
    34    15    36    1
    35    18     4    1
    36     4     3    1
    37     3    12    1
    38     3    13    1
    39    30    12    1
    40    32    13    1
    41    12    29    1
    42    12    28    1
    43    13    33    1
    44    13    31    1
@<TRIPOS>MOLECULE
11996452_5_run_11.pdb
 42 44 0 0 0
SMALL
GASTEIGER

@<TRIPOS>ATOM
      1    O       28.9650    3.1830    2.9010 O.3     2  LIG2       -0.3886
      2    C       24.7700    3.7040    3.1560 C.3     2  LIG2       -0.0289
      3    C       23.9430    4.1440    4.3510 C.3     2  LIG2       -0.0284
      4    C       25.0470    5.0600    3.8440 C.3     2  LIG2       -0.0319
      5    C       25.8260    2.5510    3.0680 C.3     2  LIG2       -0.0294
      6    C       26.9580    2.4150    4.1220 C.3     2  LIG2       -0.0090
      7    C       26.3690    5.3140    4.6090 C.3     2  LIG2       -0.0468
      8    C       25.2620    1.1190    2.8200 C.3     2  LIG2       -0.0404
      9    C       28.1160    3.4600    4.0040 C.3     2  LIG2        0.0664
     10    C       27.3840    0.9390    4.0220 C.3     2  LIG2       -0.0471
     11    C       27.6310    4.9240    3.8140 C.3     2  LIG2       -0.0237
     12    C       22.4990    4.5770    4.0280 C.3     2  LIG2       -0.0593
     13    C       24.0120    3.5100    5.7620 C.3     2  LIG2       -0.0593
     14    C       26.0970    0.1810    3.7070 C.3     2  LIG2       -0.0498
     15    C       23.7480    0.9260    3.0480 C.3     2  LIG2       -0.0621
     16    C       29.0350    3.3830    5.2470 C.3     2  LIG2       -0.0358
     17    H       24.2620    3.7690    2.1920 H       2  LIG2        0.0312
     18    H       24.7120    5.9670    3.3390 H       2  LIG2        0.0309
     19    H       26.3590    2.7850    2.1430 H       2  LIG2        0.0310
     20    H       26.5390    2.5100    5.1130 H       2  LIG2        0.0331
     21    H       26.4240    6.3880    4.7900 H       2  LIG2        0.0269
     22    H       26.3830    4.8740    5.6030 H       2  LIG2        0.0269
     23    H       25.4550    0.8490    1.7800 H       2  LIG2        0.0301
     24    H       28.1110    0.7810    3.2240 H       2  LIG2        0.0269
     25    H       27.8360    0.5780    4.9480 H       2  LIG2        0.0269
     26    H       27.4280    5.1230    2.7590 H       2  LIG2        0.0293
     27    H       28.4340    5.6140    4.0790 H       2  LIG2        0.0293
     28    H       22.1200    5.2740    4.7750 H       2  LIG2        0.0235
     29    H       21.8300    3.7160    4.0050 H       2  LIG2        0.0235
     30    H       22.4210    5.0710    3.0590 H       2  LIG2        0.0235
     31    H       23.5750    4.1880    6.4950 H       2  LIG2        0.0235
     32    H       25.0010    3.2900    6.1370 H       2  LIG2        0.0235
     33    H       23.4390    2.5840    5.8070 H       2  LIG2        0.0235
     34    H       25.5700   -0.0530    4.6340 H       2  LIG2        0.0268
     35    H       26.3100   -0.7670    3.2110 H       2  LIG2        0.0268
     36    H       23.4610    1.1380    4.0760 H       2  LIG2        0.0233
     37    H       23.4530   -0.1010    2.8350 H       2  LIG2        0.0233
     38    H       23.1600    1.5700    2.3940 H       2  LIG2        0.0233
     39    H       28.4890    3.6220    6.1600 H       2  LIG2        0.0257
     40    H       29.8740    4.0780    5.1810 H       2  LIG2        0.0257
     41    H       29.4590    2.3860    5.3760 H       2  LIG2        0.0257
     42    H       29.6470    3.8570    2.8660 H       2  LIG2        0.2102
@<TRIPOS>BOND
     1    23     8    1
     2    19     5    1
     3    17     2    1
     4    38    15    1
     5    26    11    1
     6     8    15    1
     7     8     5    1
     8     8    14    1
     9    37    15    1
    10    42     1    1
    11     1     9    1
    12    15    36    1
    13    30    12    1
    14     5     2    1
    15     5     6    1
    16     2     4    1
    17     2     3    1
    18    35    14    1
    19    24    10    1
    20    18     4    1
    21    14    10    1
    22    14    34    1
    23    11     9    1
    24    11    27    1
    25    11     7    1
    26     4     3    1
    27     4     7    1
    28     9     6    1
    29     9    16    1
    30    29    12    1
    31    10     6    1
    32    10    25    1
    33    12     3    1
    34    12    28    1
    35     6    20    1
    36     3    13    1
    37     7    21    1
    38     7    22    1
    39    40    16    1
    40    16    41    1
    41    16    39    1
    42    13    33    1
    43    13    32    1
    44    13    31    1
