@<TRIPOS>MOLECULE
11996452_10_run_19.pdb
 42 44 0 0 0
SMALL
GASTEIGER

@<TRIPOS>ATOM
      1    O       26.6260    4.4500    2.5300 O.3     2  LIG2       -0.3886
      2    C       27.5020    0.4390    4.5500 C.3     2  LIG2       -0.0289
      3    C       28.1270   -0.3050    3.3810 C.3     2  LIG2       -0.0284
      4    C       26.6810    0.1510    3.2730 C.3     2  LIG2       -0.0319
      5    C       27.8010    1.8870    5.0650 C.3     2  LIG2       -0.0294
      6    C       27.7920    3.1020    4.0980 C.3     2  LIG2       -0.0090
      7    C       26.2150    1.2940    2.3400 C.3     2  LIG2       -0.0468
      8    C       29.0530    2.0470    5.9820 C.3     2  LIG2       -0.0404
      9    C       26.3770    3.5860    3.6290 C.3     2  LIG2        0.0664
     10    C       28.6660    4.1500    4.8080 C.3     2  LIG2       -0.0471
     11    C       25.4880    2.4380    3.0750 C.3     2  LIG2       -0.0237
     12    C       29.2220    0.2690    2.4500 C.3     2  LIG2       -0.0593
     13    C       28.3510   -1.8130    3.6050 C.3     2  LIG2       -0.0593
     14    C       29.7470    3.3360    5.5140 C.3     2  LIG2       -0.0498
     15    C       30.0280    0.8540    6.0390 C.3     2  LIG2       -0.0621
     16    C       25.5760    4.4010    4.6720 C.3     2  LIG2       -0.0358
     17    H       27.2560   -0.1840    5.4120 H       2  LIG2        0.0312
     18    H       25.9330   -0.6420    3.3140 H       2  LIG2        0.0309
     19    H       26.9610    2.0780    5.7350 H       2  LIG2        0.0310
     20    H       28.3600    2.8410    3.2140 H       2  LIG2        0.0331
     21    H       27.0080    1.6840    1.7050 H       2  LIG2        0.0269
     22    H       25.5020    0.8570    1.6390 H       2  LIG2        0.0269
     23    H       28.7090    2.2130    7.0050 H       2  LIG2        0.0301
     24    H       29.0990    4.8670    4.1080 H       2  LIG2        0.0269
     25    H       28.1030    4.7150    5.5500 H       2  LIG2        0.0269
     26    H       24.7190    2.8510    2.4200 H       2  LIG2        0.0293
     27    H       24.9270    1.9910    3.8980 H       2  LIG2        0.0293
     28    H       29.2420   -0.2880    1.5130 H       2  LIG2        0.0235
     29    H       30.2100    0.1690    2.8960 H       2  LIG2        0.0235
     30    H       29.1100    1.3050    2.1640 H       2  LIG2        0.0235
     31    H       28.3550   -2.3570    2.6590 H       2  LIG2        0.0235
     32    H       27.5730   -2.2610    4.2260 H       2  LIG2        0.0235
     33    H       29.3040   -1.9970    4.1010 H       2  LIG2        0.0235
     34    H       30.1800    3.8910    6.3460 H       2  LIG2        0.0268
     35    H       30.5580    3.1130    4.8180 H       2  LIG2        0.0268
     36    H       30.4680    0.6380    5.0680 H       2  LIG2        0.0233
     37    H       29.5330   -0.0510    6.3930 H       2  LIG2        0.0233
     38    H       30.8490    1.0580    6.7270 H       2  LIG2        0.0233
     39    H       25.4340    3.8390    5.5970 H       2  LIG2        0.0257
     40    H       24.5860    4.6630    4.2980 H       2  LIG2        0.0257
     41    H       26.0660    5.3400    4.9300 H       2  LIG2        0.0257
     42    H       27.1340    5.2030    2.8450 H       2  LIG2        0.2102
@<TRIPOS>BOND
     1    28    12    1
     2    22     7    1
     3    21     7    1
     4    30    12    1
     5     7    11    1
     6     7     4    1
     7    26    11    1
     8    12    29    1
     9    12     3    1
    10     1    42    1
    11     1     9    1
    12    31    13    1
    13    11     9    1
    14    11    27    1
    15    20     6    1
    16     4    18    1
    17     4     3    1
    18     4     2    1
    19     3    13    1
    20     3     2    1
    21    13    33    1
    22    13    32    1
    23     9     6    1
    24     9    16    1
    25     6    10    1
    26     6     5    1
    27    24    10    1
    28    40    16    1
    29     2     5    1
    30     2    17    1
    31    16    41    1
    32    16    39    1
    33    10    14    1
    34    10    25    1
    35    35    14    1
    36     5    19    1
    37     5     8    1
    38    36    15    1
    39    14     8    1
    40    14    34    1
    41     8    15    1
    42     8    23    1
    43    15    37    1
    44    15    38    1
@<TRIPOS>MOLECULE
11996452_10_run_14.pdb
 42 44 0 0 0
SMALL
GASTEIGER

@<TRIPOS>ATOM
      1    O       25.3490    6.8500    5.0920 O.3     2  LIG2       -0.3886
      2    C       26.8500    3.1410    2.8720 C.3     2  LIG2       -0.0289
      3    C       28.0320    2.7750    3.7560 C.3     2  LIG2       -0.0284
      4    C       28.0440    4.1080    3.0280 C.3     2  LIG2       -0.0319
      5    C       25.3880    3.5130    3.2920 C.3     2  LIG2       -0.0294
      6    C       25.1120    4.6030    4.3630 C.3     2  LIG2       -0.0090
      7    C       27.8890    5.4710    3.7430 C.3     2  LIG2       -0.0468
      8    C       24.4360    2.3180    3.6070 C.3     2  LIG2       -0.0404
      9    C       25.3310    6.0840    3.8980 C.3     2  LIG2        0.0664
     10    C       23.7100    4.2590    4.8930 C.3     2  LIG2       -0.0471
     11    C       26.7100    6.3160    3.2200 C.3     2  LIG2       -0.0237
     12    C       27.9930    2.7030    5.3020 C.3     2  LIG2       -0.0593
     13    C       28.9610    1.6810    3.1920 C.3     2  LIG2       -0.0593
     14    C       23.6480    2.7340    4.8590 C.3     2  LIG2       -0.0498
     15    C       25.0940    0.9330    3.7730 C.3     2  LIG2       -0.0621
     16    C       24.2120    6.6680    3.0030 C.3     2  LIG2       -0.0358
     17    H       26.8040    2.6070    1.9220 H       2  LIG2        0.0312
     18    H       28.7510    4.1870    2.2000 H       2  LIG2        0.0309
     19    H       24.9800    3.9380    2.3740 H       2  LIG2        0.0310
     20    H       25.7640    4.4260    5.2090 H       2  LIG2        0.0331
     21    H       27.8540    5.3890    4.8280 H       2  LIG2        0.0269
     22    H       28.8010    6.0360    3.5470 H       2  LIG2        0.0269
     23    H       23.7220    2.2240    2.7860 H       2  LIG2        0.0301
     24    H       23.5450    4.6430    5.9010 H       2  LIG2        0.0269
     25    H       22.9230    4.6620    4.2560 H       2  LIG2        0.0269
     26    H       26.9750    7.3740    3.2790 H       2  LIG2        0.0293
     27    H       26.6200    6.1220    2.1490 H       2  LIG2        0.0293
     28    H       29.0040    2.7760    5.7020 H       2  LIG2        0.0235
     29    H       27.5880    1.7510    5.6420 H       2  LIG2        0.0235
     30    H       27.4310    3.4790    5.8000 H       2  LIG2        0.0235
     31    H       29.9710    1.7770    3.5940 H       2  LIG2        0.0235
     32    H       29.0430    1.7270    2.1050 H       2  LIG2        0.0235
     33    H       28.5930    0.6870    3.4450 H       2  LIG2        0.0235
     34    H       22.6170    2.3810    4.8290 H       2  LIG2        0.0268
     35    H       24.1040    2.3250    5.7630 H       2  LIG2        0.0268
     36    H       25.7930    0.9090    4.6060 H       2  LIG2        0.0233
     37    H       25.6330    0.6340    2.8730 H       2  LIG2        0.0233
     38    H       24.3410    0.1670    3.9620 H       2  LIG2        0.0233
     39    H       24.0600    6.0670    2.1050 H       2  LIG2        0.0257
     40    H       24.4510    7.6810    2.6770 H       2  LIG2        0.0257
     41    H       23.2550    6.7300    3.5220 H       2  LIG2        0.0257
     42    H       26.1630    6.6570    5.5640 H       2  LIG2        0.2102
@<TRIPOS>BOND
     1    17     2    1
     2    32    13    1
     3    39    16    1
     4    27    11    1
     5    18     4    1
     6    19     5    1
     7    40    16    1
     8    23     8    1
     9     2     4    1
    10     2     5    1
    11     2     3    1
    12    37    15    1
    13    16    41    1
    14    16     9    1
    15     4     7    1
    16     4     3    1
    17    13    33    1
    18    13    31    1
    19    13     3    1
    20    11    26    1
    21    11     7    1
    22    11     9    1
    23     5     8    1
    24     5     6    1
    25    22     7    1
    26     8    15    1
    27     8    14    1
    28     7    21    1
    29     3    12    1
    30    15    38    1
    31    15    36    1
    32     9     6    1
    33     9     1    1
    34    25    10    1
    35     6    10    1
    36     6    20    1
    37    34    14    1
    38    14    10    1
    39    14    35    1
    40    10    24    1
    41     1    42    1
    42    12    29    1
    43    12    28    1
    44    12    30    1
@<TRIPOS>MOLECULE
11996452_10_run_2.pdb
 42 44 0 0 0
SMALL
GASTEIGER

@<TRIPOS>ATOM
      1    O       27.3440   -0.1580    4.8930 O.3     2  LIG2       -0.3886
      2    C       25.5670    3.6460    3.0750 C.3     2  LIG2       -0.0289
      3    C       24.4630    3.9200    4.0840 C.3     2  LIG2       -0.0284
      4    C       24.4130    2.6370    3.2700 C.3     2  LIG2       -0.0319
      5    C       27.0680    3.2880    3.3360 C.3     2  LIG2       -0.0294
      6    C       27.4640    2.1380    4.3010 C.3     2  LIG2       -0.0090
      7    C       24.6620    1.2350    3.8740 C.3     2  LIG2       -0.0468
      8    C       28.0190    4.4850    3.6450 C.3     2  LIG2       -0.0404
      9    C       27.2370    0.6850    3.7570 C.3     2  LIG2        0.0664
     10    C       28.9010    2.4850    4.7250 C.3     2  LIG2       -0.0471
     11    C       25.8070    0.4600    3.1900 C.3     2  LIG2       -0.0237
     12    C       24.6410    3.8910    5.6210 C.3     2  LIG2       -0.0593
     13    C       23.4630    5.0220    3.6810 C.3     2  LIG2       -0.0593
     14    C       28.9270    4.0090    4.7910 C.3     2  LIG2       -0.0498
     15    C       27.3490    5.8380    3.9630 C.3     2  LIG2       -0.0621
     16    C       28.2820    0.1920    2.7280 C.3     2  LIG2       -0.0358
     17    H       25.5140    4.2430    2.1620 H       2  LIG2        0.0312
     18    H       23.6360    2.5940    2.5050 H       2  LIG2        0.0309
     19    H       27.4010    2.9360    2.3580 H       2  LIG2        0.0310
     20    H       26.8890    2.2400    5.2120 H       2  LIG2        0.0331
     21    H       24.7940    1.2460    4.9540 H       2  LIG2        0.0269
     22    H       23.7480    0.6590    3.7220 H       2  LIG2        0.0269
     23    H       28.6530    4.6530    2.7720 H       2  LIG2        0.0301
     24    H       29.1650    2.0390    5.6860 H       2  LIG2        0.0269
     25    H       29.6350    2.1460    3.9950 H       2  LIG2        0.0269
     26    H       25.5710   -0.6060    3.2010 H       2  LIG2        0.0293
     27    H       25.7940    0.7260    2.1320 H       2  LIG2        0.0293
     28    H       23.6720    3.7630    6.1050 H       2  LIG2        0.0235
     29    H       25.0540    4.8290    5.9880 H       2  LIG2        0.0235
     30    H       25.2620    3.0990    6.0130 H       2  LIG2        0.0235
     31    H       22.4950    4.8720    4.1640 H       2  LIG2        0.0235
     32    H       23.2820    5.0450    2.6050 H       2  LIG2        0.0235
     33    H       23.8300    6.0070    3.9670 H       2  LIG2        0.0235
     34    H       29.9420    4.3930    4.6920 H       2  LIG2        0.0268
     35    H       28.5460    4.3460    5.7570 H       2  LIG2        0.0268
     36    H       26.7280    5.7870    4.8550 H       2  LIG2        0.0233
     37    H       26.7240    6.1800    3.1370 H       2  LIG2        0.0233
     38    H       28.0990    6.6100    4.1360 H       2  LIG2        0.0233
     39    H       28.3380    0.8550    1.8630 H       2  LIG2        0.0257
     40    H       28.0360   -0.8030    2.3560 H       2  LIG2        0.0257
     41    H       29.2830    0.1230    3.1530 H       2  LIG2        0.0257
     42    H       28.2650   -0.1870    5.1650 H       2  LIG2        0.2102
@<TRIPOS>BOND
     1    39    16    1
     2    27    11    1
     3    17     2    1
     4    40    16    1
     5    19     5    1
     6    18     4    1
     7    32    13    1
     8    16    41    1
     9    16     9    1
    10    23     8    1
    11     2     4    1
    12     2     5    1
    13     2     3    1
    14    37    15    1
    15    11    26    1
    16    11     9    1
    17    11     7    1
    18     4     7    1
    19     4     3    1
    20     5     8    1
    21     5     6    1
    22     8    15    1
    23     8    14    1
    24    13    33    1
    25    13     3    1
    26    13    31    1
    27    22     7    1
    28     9     6    1
    29     9     1    1
    30     7    21    1
    31    15    38    1
    32    15    36    1
    33    25    10    1
    34     3    12    1
    35     6    10    1
    36     6    20    1
    37    34    14    1
    38    10    14    1
    39    10    24    1
    40    14    35    1
    41     1    42    1
    42    12    29    1
    43    12    30    1
    44    12    28    1
@<TRIPOS>MOLECULE
11996452_10_run_2.pdb
 42 44 0 0 0
SMALL
GASTEIGER

@<TRIPOS>ATOM
      1    O       28.2080   -1.7410    4.1050 O.3     2  LIG2       -0.3886
      2    C       28.4600    2.8020    3.6230 C.3     2  LIG2       -0.0289
      3    C       26.9860    3.1540    3.7480 C.3     2  LIG2       -0.0284
      4    C       27.4360    2.2780    2.5920 C.3     2  LIG2       -0.0319
      5    C       29.3240    1.8580    4.5260 C.3     2  LIG2       -0.0294
      6    C       28.8570    0.4150    4.8570 C.3     2  LIG2       -0.0090
      7    C       27.1010    0.7710    2.4830 C.3     2  LIG2       -0.0468
      8    C       29.8620    2.4760    5.8530 C.3     2  LIG2       -0.0404
      9    C       28.9800   -0.6250    3.6910 C.3     2  LIG2        0.0664
     10    C       29.6060    0.0700    6.1560 C.3     2  LIG2       -0.0471
     11    C       28.3430   -0.1340    2.3610 C.3     2  LIG2       -0.0237
     12    C       26.0370    2.6140    4.8450 C.3     2  LIG2       -0.0593
     13    C       26.6270    4.6120    3.4000 C.3     2  LIG2       -0.0593
     14    C       29.6770    1.3870    6.9220 C.3     2  LIG2       -0.0498
     15    C       29.2510    3.8230    6.2880 C.3     2  LIG2       -0.0621
     16    C       30.4120   -1.1440    3.4160 C.3     2  LIG2       -0.0358
     17    H       29.0990    3.6150    3.2730 H       2  LIG2        0.0312
     18    H       27.4140    2.7490    1.6070 H       2  LIG2        0.0309
     19    H       30.2210    1.7110    3.9220 H       2  LIG2        0.0310
     20    H       27.8160    0.4510    5.1560 H       2  LIG2        0.0331
     21    H       26.4400    0.4180    3.2720 H       2  LIG2        0.0269
     22    H       26.5180    0.6430    1.5690 H       2  LIG2        0.0269
     23    H       30.9350    2.6470    5.7400 H       2  LIG2        0.0301
     24    H       29.0940   -0.7010    6.7340 H       2  LIG2        0.0269
     25    H       30.6170   -0.2850    5.9600 H       2  LIG2        0.0269
     26    H       28.0980   -0.9920    1.7320 H       2  LIG2        0.0293
     27    H       29.0910    0.4150    1.7870 H       2  LIG2        0.0293
     28    H       25.0000    2.7160    4.5220 H       2  LIG2        0.0235
     29    H       26.1360    3.1830    5.7680 H       2  LIG2        0.0235
     30    H       26.1540    1.5720    5.1040 H       2  LIG2        0.0235
     31    H       25.5910    4.6940    3.0660 H       2  LIG2        0.0235
     32    H       27.2520    5.0140    2.6000 H       2  LIG2        0.0235
     33    H       26.7530    5.2640    4.2640 H       2  LIG2        0.0235
     34    H       30.4950    1.3820    7.6430 H       2  LIG2        0.0268
     35    H       28.7530    1.5420    7.4820 H       2  LIG2        0.0268
     36    H       28.1820    3.7460    6.4750 H       2  LIG2        0.0233
     37    H       29.4050    4.5960    5.5340 H       2  LIG2        0.0233
     38    H       29.7140    4.1790    7.2080 H       2  LIG2        0.0233
     39    H       31.0990   -0.3260    3.1930 H       2  LIG2        0.0257
     40    H       30.4320   -1.8240    2.5630 H       2  LIG2        0.0257
     41    H       30.8230   -1.6970    4.2600 H       2  LIG2        0.0257
     42    H       28.6000   -2.1030    4.9040 H       2  LIG2        0.2102
@<TRIPOS>BOND
     1    22     7    1
     2    18     4    1
     3    26    11    1
     4    27    11    1
     5    11     7    1
     6    11     9    1
     7     7     4    1
     8     7    21    1
     9    40    16    1
    10     4     2    1
    11     4     3    1
    12    32    13    1
    13    31    13    1
    14    39    16    1
    15    17     2    1
    16    13     3    1
    17    13    33    1
    18    16     9    1
    19    16    41    1
    20     2     3    1
    21     2     5    1
    22     9     1    1
    23     9     6    1
    24     3    12    1
    25    19     5    1
    26     1    42    1
    27    28    12    1
    28     5     6    1
    29     5     8    1
    30    12    30    1
    31    12    29    1
    32     6    20    1
    33     6    10    1
    34    37    15    1
    35    23     8    1
    36     8    15    1
    37     8    14    1
    38    25    10    1
    39    10    24    1
    40    10    14    1
    41    15    36    1
    42    15    38    1
    43    14    35    1
    44    14    34    1
@<TRIPOS>MOLECULE
11996452_10_run_8.pdb
 42 44 0 0 0
SMALL
GASTEIGER

@<TRIPOS>ATOM
      1    O       31.3490    1.8690    4.7820 O.3     2  LIG2       -0.3886
      2    C       26.8080    2.3730    4.5400 C.3     2  LIG2       -0.0289
      3    C       26.7360    3.7910    3.9970 C.3     2  LIG2       -0.0284
      4    C       27.3670    3.5570    5.3590 C.3     2  LIG2       -0.0319
      5    C       27.6930    1.1780    4.0510 C.3     2  LIG2       -0.0294
      6    C       29.2260    1.3380    3.8620 C.3     2  LIG2       -0.0090
      7    C       28.8830    3.7020    5.6330 C.3     2  LIG2       -0.0468
      8    C       27.1640    0.3890    2.8140 C.3     2  LIG2       -0.0404
      9    C       30.0720    1.3950    5.1800 C.3     2  LIG2        0.0664
     10    C       29.5970    0.2260    2.8660 C.3     2  LIG2       -0.0471
     11    C       29.5350    2.4290    6.2090 C.3     2  LIG2       -0.0237
     12    C       27.5690    4.3260    2.8070 C.3     2  LIG2       -0.0593
     13    C       25.3310    4.4250    3.9960 C.3     2  LIG2       -0.0593
     14    C       28.3950    0.1280    1.9310 C.3     2  LIG2       -0.0498
     15    C       26.0100    1.0360    2.0210 C.3     2  LIG2       -0.0621
     16    C       30.2930    0.0350    5.8840 C.3     2  LIG2       -0.0358
     17    H       25.8580    1.9690    4.8950 H       2  LIG2        0.0312
     18    H       26.7860    3.9080    6.2140 H       2  LIG2        0.0309
     19    H       27.6030    0.4660    4.8730 H       2  LIG2        0.0310
     20    H       29.4100    2.2530    3.3140 H       2  LIG2        0.0331
     21    H       29.4440    4.0710    4.7770 H       2  LIG2        0.0269
     22    H       28.9940    4.4870    6.3830 H       2  LIG2        0.0269
     23    H       26.7960   -0.5810    3.1580 H       2  LIG2        0.0301
     24    H       30.5120    0.4530    2.3170 H       2  LIG2        0.0269
     25    H       29.7420   -0.7330    3.3620 H       2  LIG2        0.0269
     26    H       30.3350    2.7160    6.8930 H       2  LIG2        0.0293
     27    H       28.7950    1.9460    6.8500 H       2  LIG2        0.0293
     28    H       27.6090    5.4150    2.8420 H       2  LIG2        0.0235
     29    H       27.1130    4.0590    1.8550 H       2  LIG2        0.0235
     30    H       28.5990    4.0040    2.7630 H       2  LIG2        0.0235
     31    H       25.3900    5.5140    4.0440 H       2  LIG2        0.0235
     32    H       24.7290    4.1000    4.8460 H       2  LIG2        0.0235
     33    H       24.7830    4.1590    3.0930 H       2  LIG2        0.0235
     34    H       28.3490   -0.8470    1.4450 H       2  LIG2        0.0268
     35    H       28.4760    0.8790    1.1420 H       2  LIG2        0.0268
     36    H       26.2960    1.9930    1.5910 H       2  LIG2        0.0233
     37    H       25.1330    1.1970    2.6490 H       2  LIG2        0.0233
     38    H       25.6990    0.3930    1.1970 H       2  LIG2        0.0233
     39    H       29.3470   -0.4490    6.1290 H       2  LIG2        0.0257
     40    H       30.8460    0.1550    6.8170 H       2  LIG2        0.0257
     41    H       30.8690   -0.6600    5.2730 H       2  LIG2        0.0257
     42    H       31.7880    1.1750    4.2820 H       2  LIG2        0.2102
@<TRIPOS>BOND
     1    35    14    1
     2    38    15    1
     3    34    14    1
     4    36    15    1
     5    29    12    1
     6    14     8    1
     7    14    10    1
     8    15    37    1
     9    15     8    1
    10    24    10    1
    11    30    12    1
    12    12    28    1
    13    12     3    1
    14     8    23    1
    15     8     5    1
    16    10    25    1
    17    10     6    1
    18    33    13    1
    19    20     6    1
    20     6     5    1
    21     6     9    1
    22    13     3    1
    23    13    31    1
    24    13    32    1
    25     3     2    1
    26     3     4    1
    27     5     2    1
    28     5    19    1
    29    42     1    1
    30     2    17    1
    31     2     4    1
    32    21     7    1
    33     1     9    1
    34     9    16    1
    35     9    11    1
    36    41    16    1
    37     4     7    1
    38     4    18    1
    39     7    11    1
    40     7    22    1
    41    16    39    1
    42    16    40    1
    43    11    27    1
    44    11    26    1
@<TRIPOS>MOLECULE
11996452_10_run_14.pdb
 42 44 0 0 0
SMALL
GASTEIGER

@<TRIPOS>ATOM
      1    O       29.2030    0.7750    6.1390 O.3     2  LIG2       -0.3886
      2    C       26.4210    2.0040    2.7200 C.3     2  LIG2       -0.0289
      3    C       25.0760    1.8020    3.4000 C.3     2  LIG2       -0.0284
      4    C       25.9850    0.6010    3.1980 C.3     2  LIG2       -0.0319
      5    C       27.6950    2.7330    3.2640 C.3     2  LIG2       -0.0294
      6    C       28.2870    2.3870    4.6560 C.3     2  LIG2       -0.0090
      7    C       26.7150   -0.1200    4.3550 C.3     2  LIG2       -0.0468
      8    C       27.7040    4.2880    3.1410 C.3     2  LIG2       -0.0404
      9    C       29.0560    1.0250    4.7500 C.3     2  LIG2        0.0664
     10    C       29.0850    3.6440    5.0450 C.3     2  LIG2       -0.0471
     11    C       28.2470   -0.1760    4.1830 C.3     2  LIG2       -0.0237
     12    C       24.7150    2.3070    4.8180 C.3     2  LIG2       -0.0593
     13    C       23.8490    1.8930    2.4710 C.3     2  LIG2       -0.0593
     14    C       28.2810    4.8050    4.4690 C.3     2  LIG2       -0.0498
     15    C       26.3620    4.9640    2.7920 C.3     2  LIG2       -0.0621
     16    C       30.4770    1.0230    4.1370 C.3     2  LIG2       -0.0358
     17    H       26.3710    2.1650    1.6420 H       2  LIG2        0.0312
     18    H       25.6560   -0.1170    2.4440 H       2  LIG2        0.0309
     19    H       28.4680    2.4120    2.5630 H       2  LIG2        0.0310
     20    H       27.4780    2.3570    5.3750 H       2  LIG2        0.0331
     21    H       26.4500    0.2630    5.3380 H       2  LIG2        0.0269
     22    H       26.3550   -1.1500    4.3630 H       2  LIG2        0.0269
     23    H       28.4040    4.5660    2.3500 H       2  LIG2        0.0301
     24    H       29.2040    3.7370    6.1260 H       2  LIG2        0.0269
     25    H       30.0820    3.6460    4.6050 H       2  LIG2        0.0269
     26    H       28.6200   -1.1070    4.6140 H       2  LIG2        0.0293
     27    H       28.4510   -0.2740    3.1150 H       2  LIG2        0.0293
     28    H       23.8630    1.7480    5.2060 H       2  LIG2        0.0235
     29    H       24.4220    3.3560    4.8000 H       2  LIG2        0.0235
     30    H       25.4870    2.2100    5.5680 H       2  LIG2        0.0235
     31    H       23.0100    1.3180    2.8670 H       2  LIG2        0.0235
     32    H       24.0560    1.5070    1.4710 H       2  LIG2        0.0235
     33    H       23.5220    2.9260    2.3550 H       2  LIG2        0.0235
     34    H       28.9060    5.6870    4.3260 H       2  LIG2        0.0268
     35    H       27.4820    5.0830    5.1610 H       2  LIG2        0.0268
     36    H       25.6050    4.7870    3.5530 H       2  LIG2        0.0233
     37    H       25.9710    4.6080    1.8380 H       2  LIG2        0.0233
     38    H       26.4840    6.0440    2.7040 H       2  LIG2        0.0233
     39    H       30.4610    1.3130    3.0850 H       2  LIG2        0.0257
     40    H       30.9330    0.0340    4.1920 H       2  LIG2        0.0257
     41    H       31.1530    1.7030    4.6550 H       2  LIG2        0.0257
     42    H       29.6830   -0.0490    6.2500 H       2  LIG2        0.2102
@<TRIPOS>BOND
     1    32    13    1
     2    17     2    1
     3    37    15    1
     4    23     8    1
     5    33    13    1
     6    18     4    1
     7    13    31    1
     8    13     3    1
     9    19     5    1
    10    38    15    1
    11     2     4    1
    12     2     5    1
    13     2     3    1
    14    15     8    1
    15    15    36    1
    16    39    16    1
    17    27    11    1
    18     8     5    1
    19     8    14    1
    20     4     3    1
    21     4     7    1
    22     5     6    1
    23     3    12    1
    24    16    40    1
    25    16    41    1
    26    16     9    1
    27    11     7    1
    28    11    26    1
    29    11     9    1
    30    34    14    1
    31     7    22    1
    32     7    21    1
    33    14    10    1
    34    14    35    1
    35    25    10    1
    36     6     9    1
    37     6    10    1
    38     6    20    1
    39     9     1    1
    40    29    12    1
    41    12    28    1
    42    12    30    1
    43    10    24    1
    44     1    42    1
@<TRIPOS>MOLECULE
11996452_10_run_22.pdb
 42 44 0 0 0
SMALL
GASTEIGER

@<TRIPOS>ATOM
      1    O       23.9600    6.0940    2.4880 O.3     2  LIG2       -0.3886
      2    C       26.0320    2.6190    4.6260 C.3     2  LIG2       -0.0289
      3    C       25.7420    1.5010    3.6360 C.3     2  LIG2       -0.0284
      4    C       24.5780    2.1870    4.3310 C.3     2  LIG2       -0.0319
      5    C       26.5680    4.0630    4.3460 C.3     2  LIG2       -0.0294
      6    C       25.8980    4.9770    3.2850 C.3     2  LIG2       -0.0090
      7    C       23.5890    3.1300    3.6060 C.3     2  LIG2       -0.0468
      8    C       28.1100    4.2010    4.1530 C.3     2  LIG2       -0.0404
      9    C       24.5160    5.5950    3.6950 C.3     2  LIG2        0.0664
     10    C       27.0020    5.9790    2.9050 C.3     2  LIG2       -0.0471
     11    C       23.5070    4.5390    4.2270 C.3     2  LIG2       -0.0237
     12    C       25.9370    1.6020    2.1040 C.3     2  LIG2       -0.0593
     13    C       26.0890    0.0820    4.1280 C.3     2  LIG2       -0.0593
     14    C       28.2950    5.1730    2.9770 C.3     2  LIG2       -0.0498
     15    C       28.9030    2.8930    3.9520 C.3     2  LIG2       -0.0621
     16    C       24.5890    6.7830    4.6840 C.3     2  LIG2       -0.0358
     17    H       26.4300    2.2900    5.5870 H       2  LIG2        0.0312
     18    H       24.0590    1.5900    5.0830 H       2  LIG2        0.0309
     19    H       26.3760    4.5730    5.2910 H       2  LIG2        0.0310
     20    H       25.7440    4.4000    2.3820 H       2  LIG2        0.0331
     21    H       23.7560    3.1890    2.5330 H       2  LIG2        0.0269
     22    H       22.5990    2.6800    3.6990 H       2  LIG2        0.0269
     23    H       28.5250    4.6790    5.0430 H       2  LIG2        0.0301
     24    H       26.8490    6.4020    1.9110 H       2  LIG2        0.0269
     25    H       27.0580    6.8090    3.6080 H       2  LIG2        0.0269
     26    H       22.4880    4.9180    4.1190 H       2  LIG2        0.0293
     27    H       23.6380    4.4290    5.3050 H       2  LIG2        0.0293
     28    H       25.3440    0.8370    1.6030 H       2  LIG2        0.0235
     29    H       26.9750    1.4270    1.8270 H       2  LIG2        0.0235
     30    H       25.6430    2.5360    1.6480 H       2  LIG2        0.0235
     31    H       25.4780   -0.6700    3.6260 H       2  LIG2        0.0235
     32    H       25.9250   -0.0380    5.2000 H       2  LIG2        0.0235
     33    H       27.1350   -0.1540    3.9340 H       2  LIG2        0.0235
     34    H       29.1590    5.8230    3.1180 H       2  LIG2        0.0268
     35    H       28.4470    4.6310    2.0410 H       2  LIG2        0.0268
     36    H       28.5950    2.3620    3.0540 H       2  LIG2        0.0233
     37    H       28.7840    2.2180    4.8000 H       2  LIG2        0.0233
     38    H       29.9690    3.0980    3.8550 H       2  LIG2        0.0233
     39    H       25.1050    6.5070    5.6050 H       2  LIG2        0.0257
     40    H       23.5930    7.1300    4.9630 H       2  LIG2        0.0257
     41    H       25.1080    7.6430    4.2620 H       2  LIG2        0.0257
     42    H       24.5120    6.8140    2.1740 H       2  LIG2        0.2102
@<TRIPOS>BOND
     1    28    12    1
     2    30    12    1
     3    29    12    1
     4    24    10    1
     5    35    14    1
     6    12     3    1
     7    42     1    1
     8    20     6    1
     9     1     9    1
    10    21     7    1
    11    10    14    1
    12    10     6    1
    13    10    25    1
    14    14    34    1
    15    14     8    1
    16    36    15    1
    17     6     9    1
    18     6     5    1
    19     7    22    1
    20     7    11    1
    21     7     4    1
    22    31    13    1
    23     3    13    1
    24     3     4    1
    25     3     2    1
    26     9    11    1
    27     9    16    1
    28    38    15    1
    29    33    13    1
    30    15     8    1
    31    15    37    1
    32    26    11    1
    33    13    32    1
    34     8     5    1
    35     8    23    1
    36    11    27    1
    37    41    16    1
    38     4     2    1
    39     4    18    1
    40     5     2    1
    41     5    19    1
    42     2    17    1
    43    16    40    1
    44    16    39    1
@<TRIPOS>MOLECULE
11996452_10_run_17.pdb
 42 44 0 0 0
SMALL
GASTEIGER

@<TRIPOS>ATOM
      1    O       25.4300    1.1700    1.5540 O.3     2  LIG2       -0.3886
      2    C       27.9810    1.3590    5.3470 C.3     2  LIG2       -0.0289
      3    C       29.2460    0.6860    4.8380 C.3     2  LIG2       -0.0284
      4    C       27.9530   -0.1110    4.8750 C.3     2  LIG2       -0.0319
      5    C       27.1320    2.4900    4.6740 C.3     2  LIG2       -0.0294
      6    C       26.6490    2.3640    3.2040 C.3     2  LIG2       -0.0090
      7    C       27.1770   -0.5350    3.6060 C.3     2  LIG2       -0.0468
      8    C       27.6580    3.9470    4.8550 C.3     2  LIG2       -0.0404
      9    C       25.4680    1.3630    2.9590 C.3     2  LIG2        0.0664
     10    C       26.4070    3.8190    2.7660 C.3     2  LIG2       -0.0471
     11    C       25.7160   -0.0410    3.5770 C.3     2  LIG2       -0.0237
     12    C       29.9490    1.0170    3.4990 C.3     2  LIG2       -0.0593
     13    C       30.2900    0.3430    5.9200 C.3     2  LIG2       -0.0593
     14    C       27.4850    4.6230    3.4860 C.3     2  LIG2       -0.0498
     15    C       29.0920    4.1040    5.4000 C.3     2  LIG2       -0.0621
     16    C       24.0700    1.8730    3.3840 C.3     2  LIG2       -0.0358
     17    H       27.9400    1.5020    6.4280 H       2  LIG2        0.0312
     18    H       27.9020   -0.8920    5.6360 H       2  LIG2        0.0309
     19    H       26.2090    2.4700    5.2560 H       2  LIG2        0.0310
     20    H       27.4840    2.0420    2.5940 H       2  LIG2        0.0331
     21    H       27.6890   -0.2810    2.6800 H       2  LIG2        0.0269
     22    H       27.1470   -1.6260    3.6040 H       2  LIG2        0.0269
     23    H       27.0020    4.4620    5.5600 H       2  LIG2        0.0301
     24    H       26.4740    3.9390    1.6830 H       2  LIG2        0.0269
     25    H       25.4260    4.1790    3.0740 H       2  LIG2        0.0269
     26    H       25.0990   -0.7820    3.0660 H       2  LIG2        0.0293
     27    H       25.3490   -0.0500    4.6050 H       2  LIG2        0.0293
     28    H       30.5920    0.1890    3.2020 H       2  LIG2        0.0235
     29    H       30.5880    1.8930    3.5960 H       2  LIG2        0.0235
     30    H       29.3010    1.1940    2.6530 H       2  LIG2        0.0235
     31    H       30.9160   -0.4960    5.6120 H       2  LIG2        0.0235
     32    H       29.8270    0.0650    6.8690 H       2  LIG2        0.0235
     33    H       30.9420    1.1930    6.1170 H       2  LIG2        0.0235
     34    H       27.1990    5.6710    3.5820 H       2  LIG2        0.0268
     35    H       28.4150    4.5930    2.9140 H       2  LIG2        0.0268
     36    H       29.8320    3.6630    4.7360 H       2  LIG2        0.0233
     37    H       29.2010    3.6410    6.3810 H       2  LIG2        0.0233
     38    H       29.3490    5.1570    5.5140 H       2  LIG2        0.0233
     39    H       24.0460    2.1480    4.4390 H       2  LIG2        0.0257
     40    H       23.3050    1.1100    3.2310 H       2  LIG2        0.0257
     41    H       23.7540    2.7440    2.8100 H       2  LIG2        0.0257
     42    H       26.2860    0.8410    1.2690 H       2  LIG2        0.2102
@<TRIPOS>BOND
     1    42     1    1
     2     1     9    1
     3    24    10    1
     4    20     6    1
     5    30    12    1
     6    21     7    1
     7    10    25    1
     8    10     6    1
     9    10    14    1
    10    41    16    1
    11    35    14    1
    12     9     6    1
    13     9    16    1
    14     9    11    1
    15    26    11    1
    16    28    12    1
    17     6     5    1
    18    40    16    1
    19    16    39    1
    20    14    34    1
    21    14     8    1
    22    12    29    1
    23    12     3    1
    24    11     7    1
    25    11    27    1
    26    22     7    1
    27     7     4    1
    28     5     8    1
    29     5    19    1
    30     5     2    1
    31    36    15    1
    32     3     4    1
    33     3     2    1
    34     3    13    1
    35     8    15    1
    36     8    23    1
    37     4     2    1
    38     4    18    1
    39     2    17    1
    40    15    38    1
    41    15    37    1
    42    31    13    1
    43    13    33    1
    44    13    32    1
@<TRIPOS>MOLECULE
11996452_10_run_3.pdb
 42 44 0 0 0
SMALL
GASTEIGER

@<TRIPOS>ATOM
      1    O       27.7000   -0.2820    2.3530 O.3     2  LIG2       -0.3886
      2    C       27.2410    3.6550    4.6370 C.3     2  LIG2       -0.0289
      3    C       27.8060    4.6180    3.6040 C.3     2  LIG2       -0.0284
      4    C       28.7140    3.5460    4.1840 C.3     2  LIG2       -0.0319
      5    C       26.1980    2.5040    4.4390 C.3     2  LIG2       -0.0294
      6    C       26.3830    1.4350    3.3300 C.3     2  LIG2       -0.0090
      7    C       29.2200    2.3280    3.3750 C.3     2  LIG2       -0.0468
      8    C       24.6980    2.9310    4.4120 C.3     2  LIG2       -0.0404
      9    C       27.4880    0.3560    3.6020 C.3     2  LIG2        0.0664
     10    C       24.9610    0.9010    3.0850 C.3     2  LIG2       -0.0471
     11    C       28.8570    0.9690    4.0070 C.3     2  LIG2       -0.0237
     12    C       27.4300    4.6260    2.1030 C.3     2  LIG2       -0.0593
     13    C       28.0430    6.0560    4.1050 C.3     2  LIG2       -0.0593
     14    C       24.0560    2.1150    3.2790 C.3     2  LIG2       -0.0498
     15    C       24.4090    4.4390    4.2730 C.3     2  LIG2       -0.0621
     16    C       27.0980   -0.7490    4.6140 C.3     2  LIG2       -0.0358
     17    H       27.0900    4.0840    5.6300 H       2  LIG2        0.0312
     18    H       29.4870    3.9020    4.8670 H       2  LIG2        0.0309
     19    H       26.2930    1.9390    5.3680 H       2  LIG2        0.0310
     20    H       26.6380    1.9380    2.4060 H       2  LIG2        0.0331
     21    H       28.9320    2.3560    2.3260 H       2  LIG2        0.0269
     22    H       30.3090    2.3930    3.3550 H       2  LIG2        0.0269
     23    H       24.2340    2.6130    5.3480 H       2  LIG2        0.0301
     24    H       24.8480    0.4740    2.0870 H       2  LIG2        0.0269
     25    H       24.6850    0.1310    3.8040 H       2  LIG2        0.0269
     26    H       29.6560    0.2550    3.7990 H       2  LIG2        0.0293
     27    H       28.8870    1.0960    5.0910 H       2  LIG2        0.0293
     28    H       28.2020    5.1400    1.5290 H       2  LIG2        0.0235
     29    H       26.5000    5.1670    1.9330 H       2  LIG2        0.0235
     30    H       27.3210    3.6590    1.6340 H       2  LIG2        0.0235
     31    H       28.8270    6.5510    3.5290 H       2  LIG2        0.0235
     32    H       28.3490    6.0860    5.1520 H       2  LIG2        0.0235
     33    H       27.1360    6.6540    4.0190 H       2  LIG2        0.0235
     34    H       23.0370    1.8130    3.5200 H       2  LIG2        0.0268
     35    H       24.0110    2.6950    2.3550 H       2  LIG2        0.0268
     36    H       24.7910    4.8450    3.3390 H       2  LIG2        0.0233
     37    H       24.8480    5.0090    5.0930 H       2  LIG2        0.0233
     38    H       23.3350    4.6300    4.2930 H       2  LIG2        0.0233
     39    H       26.8140   -0.3270    5.5790 H       2  LIG2        0.0257
     40    H       27.9280   -1.4350    4.7920 H       2  LIG2        0.0257
     41    H       26.2660   -1.3580    4.2630 H       2  LIG2        0.0257
     42    H       28.3950   -0.9380    2.4600 H       2  LIG2        0.2102
@<TRIPOS>BOND
     1    28    12    1
     2    30    12    1
     3    29    12    1
     4    24    10    1
     5    12     3    1
     6    21     7    1
     7     1    42    1
     8     1     9    1
     9    35    14    1
    10    20     6    1
    11    10    14    1
    12    10     6    1
    13    10    25    1
    14    14    34    1
    15    14     8    1
    16     6     9    1
    17     6     5    1
    18    36    15    1
    19    22     7    1
    20     7    11    1
    21     7     4    1
    22    31    13    1
    23     9    11    1
    24     9    16    1
    25     3    13    1
    26     3     4    1
    27     3     2    1
    28    26    11    1
    29    11    27    1
    30    33    13    1
    31    13    32    1
    32     4     2    1
    33     4    18    1
    34    41    16    1
    35    15    38    1
    36    15     8    1
    37    15    37    1
    38     8     5    1
    39     8    23    1
    40     5     2    1
    41     5    19    1
    42    16    40    1
    43    16    39    1
    44     2    17    1
@<TRIPOS>MOLECULE
11996452_10_run_3.pdb
 42 44 0 0 0
SMALL
GASTEIGER

@<TRIPOS>ATOM
      1    O       26.3440    4.8930    5.1050 O.3     2  LIG2       -0.3886
      2    C       28.8580    1.2950    3.8140 C.3     2  LIG2       -0.0289
      3    C       29.5130    0.9500    5.1420 C.3     2  LIG2       -0.0284
      4    C       29.8020    2.3010    4.5080 C.3     2  LIG2       -0.0319
      5    C       27.3530    1.6030    3.5130 C.3     2  LIG2       -0.0294
      6    C       26.5670    2.6570    4.3390 C.3     2  LIG2       -0.0090
      7    C       29.2760    3.6400    5.0770 C.3     2  LIG2       -0.0468
      8    C       26.4150    0.3670    3.3470 C.3     2  LIG2       -0.0404
      9    C       26.9120    4.1550    4.0340 C.3     2  LIG2        0.0664
     10    C       25.0950    2.2500    4.1600 C.3     2  LIG2       -0.0471
     11    C       28.4370    4.4540    4.0710 C.3     2  LIG2       -0.0237
     12    C       28.7680    0.8410    6.4950 C.3     2  LIG2       -0.0593
     13    C       30.6430   -0.0950    5.0670 C.3     2  LIG2       -0.0593
     14    C       25.1210    0.7260    4.0950 C.3     2  LIG2       -0.0498
     15    C       26.9810   -0.9960    3.7910 C.3     2  LIG2       -0.0621
     16    C       26.3080    4.7200    2.7260 C.3     2  LIG2       -0.0358
     17    H       29.2790    0.7820    2.9480 H       2  LIG2        0.0312
     18    H       30.8070    2.4240    4.1010 H       2  LIG2        0.0309
     19    H       27.3960    2.0350    2.5110 H       2  LIG2        0.0310
     20    H       26.7620    2.4840    5.3900 H       2  LIG2        0.0331
     21    H       28.7480    3.5310    6.0220 H       2  LIG2        0.0269
     22    H       30.1510    4.2420    5.3270 H       2  LIG2        0.0269
     23    H       26.1650    0.2670    2.2880 H       2  LIG2        0.0301
     24    H       24.4670    2.6040    4.9790 H       2  LIG2        0.0269
     25    H       24.6740    2.6400    3.2330 H       2  LIG2        0.0269
     26    H       28.5990    5.5180    4.2510 H       2  LIG2        0.0293
     27    H       28.8600    4.2820    3.0800 H       2  LIG2        0.0293
     28    H       29.4760    0.9410    7.3180 H       2  LIG2        0.0235
     29    H       28.2930   -0.1330    6.6050 H       2  LIG2        0.0235
     30    H       28.0070    1.5840    6.6810 H       2  LIG2        0.0235
     31    H       31.3490    0.0280    5.8900 H       2  LIG2        0.0235
     32    H       31.2160   -0.0200    4.1410 H       2  LIG2        0.0235
     33    H       30.2430   -1.1070    5.1170 H       2  LIG2        0.0235
     34    H       24.2370    0.3360    3.5890 H       2  LIG2        0.0268
     35    H       25.1250    0.3110    5.1050 H       2  LIG2        0.0268
     36    H       27.2170   -1.0150    4.8530 H       2  LIG2        0.0233
     37    H       27.8870   -1.2540    3.2410 H       2  LIG2        0.0233
     38    H       26.2600   -1.7930    3.6080 H       2  LIG2        0.0233
     39    H       26.6140    4.1350    1.8570 H       2  LIG2        0.0257
     40    H       26.6270    5.7490    2.5520 H       2  LIG2        0.0257
     41    H       25.2180    4.7350    2.7440 H       2  LIG2        0.0257
     42    H       26.5840    5.8170    4.9990 H       2  LIG2        0.2102
@<TRIPOS>BOND
     1    39    16    1
     2    23     8    1
     3    19     5    1
     4    40    16    1
     5    16    41    1
     6    16     9    1
     7    17     2    1
     8    27    11    1
     9    25    10    1
    10    37    15    1
    11     8     5    1
    12     8    15    1
    13     8    14    1
    14     5     2    1
    15     5     6    1
    16    34    14    1
    17    38    15    1
    18    15    36    1
    19     2     4    1
    20     2     3    1
    21     9    11    1
    22     9     6    1
    23     9     1    1
    24    11    26    1
    25    11     7    1
    26    14    10    1
    27    14    35    1
    28    18     4    1
    29    32    13    1
    30    10     6    1
    31    10    24    1
    32     6    20    1
    33     4     7    1
    34     4     3    1
    35    42     1    1
    36    13    33    1
    37    13     3    1
    38    13    31    1
    39     7    22    1
    40     7    21    1
    41     3    12    1
    42    12    29    1
    43    12    30    1
    44    12    28    1
