@<TRIPOS>MOLECULE
11996452_1_run_23.pdb
 42 44 0 0 0
SMALL
GASTEIGER

@<TRIPOS>ATOM
      1    O       28.3490    1.5600    6.4450 O.3     2  LIG2       -0.3886
      2    C       25.5350    1.9030    4.3970 C.3     2  LIG2       -0.0289
      3    C       25.4750    1.3290    2.9890 C.3     2  LIG2       -0.0284
      4    C       26.1260    0.5100    4.0830 C.3     2  LIG2       -0.0319
      5    C       26.2780    3.1900    4.9030 C.3     2  LIG2       -0.0294
      6    C       27.8170    3.3830    4.9400 C.3     2  LIG2       -0.0090
      7    C       27.6150    0.0910    4.0630 C.3     2  LIG2       -0.0468
      8    C       25.7840    4.5310    4.2990 C.3     2  LIG2       -0.0404
      9    C       28.7450    2.1710    5.2260 C.3     2  LIG2        0.0664
     10    C       28.1770    4.3040    3.7540 C.3     2  LIG2       -0.0471
     11    C       28.7670    1.1060    4.1080 C.3     2  LIG2       -0.0237
     12    C       24.0990    0.8320    2.5030 C.3     2  LIG2       -0.0593
     13    C       26.2970    1.9060    1.8240 C.3     2  LIG2       -0.0593
     14    C       26.8670    4.9650    3.2980 C.3     2  LIG2       -0.0498
     15    C       24.3540    4.5480    3.7250 C.3     2  LIG2       -0.0621
     16    C       30.1940    2.6470    5.4940 C.3     2  LIG2       -0.0358
     17    H       24.5760    1.8720    4.9190 H       2  LIG2        0.0312
     18    H       25.5460   -0.2940    4.5380 H       2  LIG2        0.0309
     19    H       25.9840    3.2060    5.9550 H       2  LIG2        0.0310
     20    H       27.9750    4.0320    5.8080 H       2  LIG2        0.0331
     21    H       27.7590   -0.6060    4.8910 H       2  LIG2        0.0269
     22    H       27.7590   -0.5310    3.1790 H       2  LIG2        0.0269
     23    H       25.7870    5.2690    5.1050 H       2  LIG2        0.0301
     24    H       28.8830    5.0700    4.0780 H       2  LIG2        0.0269
     25    H       28.6680    3.7820    2.9350 H       2  LIG2        0.0269
     26    H       29.6760    0.5100    4.2150 H       2  LIG2        0.0293
     27    H       28.9140    1.5710    3.1360 H       2  LIG2        0.0293
     28    H       24.2090    0.0680    1.7320 H       2  LIG2        0.0235
     29    H       23.5130    1.6480    2.0810 H       2  LIG2        0.0235
     30    H       23.5100    0.3930    3.3080 H       2  LIG2        0.0235
     31    H       26.5200    1.1330    1.0880 H       2  LIG2        0.0235
     32    H       27.2400    2.3320    2.1310 H       2  LIG2        0.0235
     33    H       25.7460    2.6940    1.3110 H       2  LIG2        0.0235
     34    H       26.6150    4.6680    2.2810 H       2  LIG2        0.0268
     35    H       26.9690    6.0520    3.2850 H       2  LIG2        0.0268
     36    H       24.2540    3.9020    2.8540 H       2  LIG2        0.0233
     37    H       24.0710    5.5540    3.4140 H       2  LIG2        0.0233
     38    H       23.6260    4.2210    4.4690 H       2  LIG2        0.0233
     39    H       30.6350    3.1010    4.6050 H       2  LIG2        0.0257
     40    H       30.8490    1.8250    5.7910 H       2  LIG2        0.0257
     41    H       30.2350    3.3910    6.2920 H       2  LIG2        0.0257
     42    H       27.4050    1.3930    6.4080 H       2  LIG2        0.2102
@<TRIPOS>BOND
     1    31    13    1
     2    33    13    1
     3    28    12    1
     4    13    32    1
     5    13     3    1
     6    29    12    1
     7    34    14    1
     8    12     3    1
     9    12    30    1
    10    36    15    1
    11    25    10    1
    12     3     4    1
    13     3     2    1
    14    27    11    1
    15    22     7    1
    16    35    14    1
    17    14    10    1
    18    14     8    1
    19    37    15    1
    20    15     8    1
    21    15    38    1
    22    10    24    1
    23    10     6    1
    24     7     4    1
    25     7    11    1
    26     7    21    1
    27     4     2    1
    28     4    18    1
    29    11    26    1
    30    11     9    1
    31     8     5    1
    32     8    23    1
    33     2     5    1
    34     2    17    1
    35    39    16    1
    36     5     6    1
    37     5    19    1
    38     6     9    1
    39     6    20    1
    40     9    16    1
    41     9     1    1
    42    16    40    1
    43    16    41    1
    44    42     1    1
@<TRIPOS>MOLECULE
11996452_1_run_15.pdb
 42 44 0 0 0
SMALL
GASTEIGER

@<TRIPOS>ATOM
      1    O       30.8650    1.6130    4.0900 O.3     2  LIG2       -0.3886
      2    C       27.8770    3.1730    3.1550 C.3     2  LIG2       -0.0289
      3    C       26.9880    3.8990    4.1540 C.3     2  LIG2       -0.0284
      4    C       28.4900    4.0530    4.2670 C.3     2  LIG2       -0.0319
      5    C       28.0410    1.6270    2.9280 C.3     2  LIG2       -0.0294
      6    C       28.6550    0.6300    3.9450 C.3     2  LIG2       -0.0090
      7    C       29.3030    3.5970    5.5020 C.3     2  LIG2       -0.0468
      8    C       26.7680    0.8810    2.4490 C.3     2  LIG2       -0.0404
      9    C       29.8090    1.0850    4.8800 C.3     2  LIG2        0.0664
     10    C       27.4750   -0.1400    4.5780 C.3     2  LIG2       -0.0471
     11    C       29.3980    2.1280    5.9410 C.3     2  LIG2       -0.0237
     12    C       26.2230    5.1310    3.6300 C.3     2  LIG2       -0.0593
     13    C       26.1760    3.1600    5.2300 C.3     2  LIG2       -0.0593
     14    C       26.2590    0.0930    3.6680 C.3     2  LIG2       -0.0498
     15    C       25.6860    1.7310    1.7540 C.3     2  LIG2       -0.0621
     16    C       30.4440   -0.1350    5.5930 C.3     2  LIG2       -0.0358
     17    H       27.8860    3.6350    2.1660 H       2  LIG2        0.0312
     18    H       28.9470    4.9600    3.8680 H       2  LIG2        0.0309
     19    H       28.7360    1.6090    2.0860 H       2  LIG2        0.0310
     20    H       29.1270   -0.1280    3.3110 H       2  LIG2        0.0331
     21    H       30.3220    3.9650    5.3640 H       2  LIG2        0.0269
     22    H       28.9370    4.1720    6.3530 H       2  LIG2        0.0269
     23    H       27.0850    0.1430    1.7080 H       2  LIG2        0.0301
     24    H       27.7060   -1.2060    4.6200 H       2  LIG2        0.0269
     25    H       27.2680    0.1540    5.6050 H       2  LIG2        0.0269
     26    H       30.1360    2.1120    6.7460 H       2  LIG2        0.0293
     27    H       28.4930    1.8160    6.4560 H       2  LIG2        0.0293
     28    H       25.9940    5.8230    4.4400 H       2  LIG2        0.0235
     29    H       25.2810    4.8390    3.1650 H       2  LIG2        0.0235
     30    H       26.7930    5.6860    2.8840 H       2  LIG2        0.0235
     31    H       26.0270    3.7940    6.1050 H       2  LIG2        0.0235
     32    H       26.6430    2.2500    5.5740 H       2  LIG2        0.0235
     33    H       25.1890    2.8880    4.8550 H       2  LIG2        0.0235
     34    H       25.4760    0.6340    4.1970 H       2  LIG2        0.0268
     35    H       25.8220   -0.8580    3.3590 H       2  LIG2        0.0268
     36    H       25.2350    2.4540    2.4310 H       2  LIG2        0.0233
     37    H       24.8820    1.1000    1.3740 H       2  LIG2        0.0233
     38    H       26.0990    2.2770    0.9060 H       2  LIG2        0.0233
     39    H       29.7360   -0.6090    6.2750 H       2  LIG2        0.0257
     40    H       31.3190    0.1440    6.1830 H       2  LIG2        0.0257
     41    H       30.7680   -0.8970    4.8820 H       2  LIG2        0.0257
     42    H       31.3000    0.8860    3.6390 H       2  LIG2        0.2102
@<TRIPOS>BOND
     1    38    15    1
     2    37    15    1
     3    23     8    1
     4    15    36    1
     5    15     8    1
     6    19     5    1
     7    17     2    1
     8     8     5    1
     9     8    14    1
    10    30    12    1
    11     5     2    1
    12     5     6    1
    13     2     3    1
    14     2     4    1
    15    29    12    1
    16    20     6    1
    17    35    14    1
    18    12     3    1
    19    12    28    1
    20    42     1    1
    21    14    34    1
    22    14    10    1
    23    18     4    1
    24     6    10    1
    25     6     9    1
    26     1     9    1
    27     3     4    1
    28     3    13    1
    29     4     7    1
    30    10    24    1
    31    10    25    1
    32    33    13    1
    33     9    16    1
    34     9    11    1
    35    41    16    1
    36    13    32    1
    37    13    31    1
    38    21     7    1
    39     7    11    1
    40     7    22    1
    41    16    40    1
    42    16    39    1
    43    11    27    1
    44    11    26    1
@<TRIPOS>MOLECULE
11996452_1_run_20.pdb
 42 44 0 0 0
SMALL
GASTEIGER

@<TRIPOS>ATOM
      1    O       25.9600    0.8930    1.4540 O.3     2  LIG2       -0.3886
      2    C       28.3850    2.6310    3.2800 C.3     2  LIG2       -0.0289
      3    C       28.8740    2.1600    4.6410 C.3     2  LIG2       -0.0284
      4    C       28.6320    1.1310    3.5570 C.3     2  LIG2       -0.0319
      5    C       27.0360    3.3490    2.9140 C.3     2  LIG2       -0.0294
      6    C       25.6250    2.7150    3.0160 C.3     2  LIG2       -0.0090
      7    C       27.5840   -0.0010    3.6750 C.3     2  LIG2       -0.0468
      8    C       26.8260    4.7470    3.5540 C.3     2  LIG2       -0.0404
      9    C       25.4310    1.1990    2.7360 C.3     2  LIG2        0.0664
     10    C       24.9640    3.3050    4.2810 C.3     2  LIG2       -0.0471
     11    C       26.0750    0.2690    3.7870 C.3     2  LIG2       -0.0237
     12    C       30.3510    2.4460    4.9810 C.3     2  LIG2       -0.0593
     13    C       27.9960    2.2170    5.9020 C.3     2  LIG2       -0.0593
     14    C       25.7830    4.5470    4.6660 C.3     2  LIG2       -0.0498
     15    C       28.0930    5.4990    4.0080 C.3     2  LIG2       -0.0621
     16    C       23.9260    0.8570    2.6170 C.3     2  LIG2       -0.0358
     17    H       29.1630    3.1070    2.6800 H       2  LIG2        0.0312
     18    H       29.4940    0.7490    3.0080 H       2  LIG2        0.0309
     19    H       27.1720    3.5240    1.8450 H       2  LIG2        0.0310
     20    H       25.0670    3.1950    2.2050 H       2  LIG2        0.0331
     21    H       27.7370   -0.6640    2.8210 H       2  LIG2        0.0269
     22    H       27.8720   -0.6130    4.5290 H       2  LIG2        0.0269
     23    H       26.3610    5.3820    2.7970 H       2  LIG2        0.0301
     24    H       23.9350    3.5960    4.0620 H       2  LIG2        0.0269
     25    H       24.8990    2.5980    5.1050 H       2  LIG2        0.0269
     26    H       25.5990   -0.7110    3.7190 H       2  LIG2        0.0293
     27    H       25.8090    0.5820    4.7930 H       2  LIG2        0.0293
     28    H       30.7300    1.7290    5.7110 H       2  LIG2        0.0235
     29    H       30.4710    3.4440    5.4010 H       2  LIG2        0.0235
     30    H       30.9970    2.3840    4.1050 H       2  LIG2        0.0235
     31    H       28.2800    1.4340    6.6060 H       2  LIG2        0.0235
     32    H       26.9430    2.0940    5.7000 H       2  LIG2        0.0235
     33    H       28.1110    3.1720    6.4140 H       2  LIG2        0.0235
     34    H       26.2540    4.4160    5.6390 H       2  LIG2        0.0268
     35    H       25.1370    5.4220    4.7520 H       2  LIG2        0.0268
     36    H       28.5990    4.9920    4.8280 H       2  LIG2        0.0233
     37    H       27.8450    6.5030    4.3540 H       2  LIG2        0.0233
     38    H       28.8040    5.6040    3.1890 H       2  LIG2        0.0233
     39    H       23.4070    1.0080    3.5650 H       2  LIG2        0.0257
     40    H       23.7630   -0.1830    2.3270 H       2  LIG2        0.0257
     41    H       23.4260    1.4770    1.8720 H       2  LIG2        0.0257
     42    H       26.8860    1.1430    1.4400 H       2  LIG2        0.2102
@<TRIPOS>BOND
     1    42     1    1
     2     1     9    1
     3    19     5    1
     4    41    16    1
     5    20     6    1
     6    40    16    1
     7    16     9    1
     8    16    39    1
     9    17     2    1
    10     9     6    1
    11     9    11    1
    12    23     8    1
    13    21     7    1
    14     5     6    1
    15     5     2    1
    16     5     8    1
    17    18     4    1
    18     6    10    1
    19    38    15    1
    20     2     4    1
    21     2     3    1
    22     8    15    1
    23     8    14    1
    24     4     7    1
    25     4     3    1
    26     7    11    1
    27     7    22    1
    28    26    11    1
    29    11    27    1
    30    15    37    1
    31    15    36    1
    32    24    10    1
    33    30    12    1
    34    10    14    1
    35    10    25    1
    36     3    12    1
    37     3    13    1
    38    14    35    1
    39    14    34    1
    40    12    29    1
    41    12    28    1
    42    32    13    1
    43    13    33    1
    44    13    31    1
@<TRIPOS>MOLECULE
11996452_1_run_12.pdb
 42 44 0 0 0
SMALL
GASTEIGER

@<TRIPOS>ATOM
      1    O       28.3490    3.9150    2.3550 O.3     2  LIG2       -0.3886
      2    C       29.1710    0.6390    3.2630 C.3     2  LIG2       -0.0289
      3    C       28.1160   -0.4270    3.5140 C.3     2  LIG2       -0.0284
      4    C       27.9230    0.5330    2.3600 C.3     2  LIG2       -0.0319
      5    C       29.6090    1.8280    4.1930 C.3     2  LIG2       -0.0294
      6    C       28.7190    3.0370    4.5830 C.3     2  LIG2       -0.0090
      7    C       26.7330    1.5180    2.2600 C.3     2  LIG2       -0.0468
      8    C       30.2390    1.4200    5.5510 C.3     2  LIG2       -0.0404
      9    C       27.6850    3.6000    3.5700 C.3     2  LIG2        0.0664
     10    C       28.2500    2.7930    6.0330 C.3     2  LIG2       -0.0471
     11    C       26.5030    2.6520    3.2720 C.3     2  LIG2       -0.0237
     12    C       28.4910   -1.8730    3.1320 C.3     2  LIG2       -0.0593
     13    C       27.1890   -0.4030    4.7400 C.3     2  LIG2       -0.0593
     14    C       29.1650    1.7040    6.6150 C.3     2  LIG2       -0.0498
     15    C       30.8490    0.0070    5.6360 C.3     2  LIG2       -0.0621
     16    C       27.1270    4.9590    4.0610 C.3     2  LIG2       -0.0358
     17    H       30.0840    0.2490    2.8090 H       2  LIG2        0.0312
     18    H       28.1710    0.1880    1.3550 H       2  LIG2        0.0309
     19    H       30.4170    2.2710    3.6060 H       2  LIG2        0.0310
     20    H       29.4350    3.8580    4.6950 H       2  LIG2        0.0331
     21    H       26.7770    1.9680    1.2660 H       2  LIG2        0.0269
     22    H       25.8240    0.9160    2.2290 H       2  LIG2        0.0269
     23    H       31.0630    2.1100    5.7450 H       2  LIG2        0.0301
     24    H       28.3500    3.7090    6.6170 H       2  LIG2        0.0269
     25    H       27.2000    2.5140    6.1070 H       2  LIG2        0.0269
     26    H       25.6810    3.2420    2.8640 H       2  LIG2        0.0293
     27    H       26.0740    2.2700    4.1940 H       2  LIG2        0.0293
     28    H       27.6000   -2.4640    2.9160 H       2  LIG2        0.0235
     29    H       29.0290   -2.3660    3.9410 H       2  LIG2        0.0235
     30    H       29.1270   -1.9160    2.2470 H       2  LIG2        0.0235
     31    H       26.2390   -0.8900    4.5170 H       2  LIG2        0.0235
     32    H       26.9590    0.5930    5.0880 H       2  LIG2        0.0235
     33    H       27.6380   -0.9340    5.5790 H       2  LIG2        0.0235
     34    H       28.5970    0.8080    6.8600 H       2  LIG2        0.0268
     35    H       29.6230    2.0430    7.5450 H       2  LIG2        0.0268
     36    H       30.0950   -0.7720    5.5380 H       2  LIG2        0.0233
     37    H       31.3470   -0.1450    6.5940 H       2  LIG2        0.0233
     38    H       31.5940   -0.1480    4.8550 H       2  LIG2        0.0233
     39    H       26.5470    4.8430    4.9780 H       2  LIG2        0.0257
     40    H       26.4680    5.4230    3.3240 H       2  LIG2        0.0257
     41    H       27.9250    5.6730    4.2700 H       2  LIG2        0.0257
     42    H       29.1540    4.3930    2.5650 H       2  LIG2        0.2102
@<TRIPOS>BOND
     1    21     7    1
     2    18     4    1
     3    22     7    1
     4    30    12    1
     5     7     4    1
     6     7    11    1
     7     1    42    1
     8     1     9    1
     9     4     2    1
    10     4     3    1
    11    17     2    1
    12    26    11    1
    13    28    12    1
    14    12     3    1
    15    12    29    1
    16     2     3    1
    17     2     5    1
    18    11     9    1
    19    11    27    1
    20    40    16    1
    21     3    13    1
    22     9    16    1
    23     9     6    1
    24    19     5    1
    25    16    41    1
    26    16    39    1
    27     5     6    1
    28     5     8    1
    29    31    13    1
    30     6    20    1
    31     6    10    1
    32    13    32    1
    33    13    33    1
    34    38    15    1
    35    36    15    1
    36     8    15    1
    37     8    23    1
    38     8    14    1
    39    15    37    1
    40    10    25    1
    41    10    14    1
    42    10    24    1
    43    14    34    1
    44    14    35    1
@<TRIPOS>MOLECULE
11996452_1_run_14.pdb
 42 44 0 0 0
SMALL
GASTEIGER

@<TRIPOS>ATOM
      1    O       25.1180    0.8680    4.3560 O.3     2  LIG2       -0.3886
      2    C       28.2410    1.3150    5.8660 C.3     2  LIG2       -0.0289
      3    C       28.9750    2.6470    5.8440 C.3     2  LIG2       -0.0284
      4    C       27.4770    2.6430    6.0610 C.3     2  LIG2       -0.0319
      5    C       28.0880    0.2580    4.7140 C.3     2  LIG2       -0.0294
      6    C       27.3070    0.4760    3.3930 C.3     2  LIG2       -0.0090
      7    C       26.4730    3.3150    5.0940 C.3     2  LIG2       -0.0468
      8    C       29.4080   -0.3940    4.2230 C.3     2  LIG2       -0.0404
      9    C       26.0280    1.3580    3.3820 C.3     2  LIG2        0.0664
     10    C       28.3600    0.7190    2.2900 C.3     2  LIG2       -0.0471
     11    C       26.2870    2.8590    3.6380 C.3     2  LIG2       -0.0237
     12    C       29.8340    2.9840    7.0800 C.3     2  LIG2       -0.0593
     13    C       29.5970    3.2290    4.5640 C.3     2  LIG2       -0.0593
     14    C       29.7070    0.2420    2.8550 C.3     2  LIG2       -0.0498
     15    C       30.5990   -0.3710    5.2010 C.3     2  LIG2       -0.0621
     16    C       25.2700    1.2010    2.0410 C.3     2  LIG2       -0.0358
     17    H       28.3940    0.7500    6.7880 H       2  LIG2        0.0312
     18    H       27.1030    2.7560    7.0800 H       2  LIG2        0.0309
     19    H       27.5330   -0.5330    5.2240 H       2  LIG2        0.0310
     20    H       26.9270   -0.5220    3.1500 H       2  LIG2        0.0331
     21    H       25.4950    3.2800    5.5770 H       2  LIG2        0.0269
     22    H       26.7120    4.3790    5.0760 H       2  LIG2        0.0269
     23    H       29.1980   -1.4500    4.0390 H       2  LIG2        0.0301
     24    H       28.1080    0.1390    1.4000 H       2  LIG2        0.0269
     25    H       28.4090    1.7540    1.9590 H       2  LIG2        0.0269
     26    H       25.4320    3.4260    3.2640 H       2  LIG2        0.0293
     27    H       27.0940    3.2230    3.0090 H       2  LIG2        0.0293
     28    H       29.9450    4.0620    7.1970 H       2  LIG2        0.0235
     29    H       30.8310    2.5530    6.9940 H       2  LIG2        0.0235
     30    H       29.3960    2.6040    8.0040 H       2  LIG2        0.0235
     31    H       29.6180    4.3190    4.6050 H       2  LIG2        0.0235
     32    H       29.0670    2.9560    3.6640 H       2  LIG2        0.0235
     33    H       30.6260    2.8890    4.4410 H       2  LIG2        0.0235
     34    H       30.4070    1.0710    2.9430 H       2  LIG2        0.0268
     35    H       30.1700   -0.4830    2.1850 H       2  LIG2        0.0268
     36    H       30.9510    0.6410    5.3940 H       2  LIG2        0.0233
     37    H       31.4420   -0.9340    4.8000 H       2  LIG2        0.0233
     38    H       30.3330   -0.8220    6.1580 H       2  LIG2        0.0233
     39    H       25.8540    1.5900    1.2050 H       2  LIG2        0.0257
     40    H       24.3180    1.7360    2.0420 H       2  LIG2        0.0257
     41    H       25.0470    0.1550    1.8210 H       2  LIG2        0.0257
     42    H       25.5450    0.9030    5.2150 H       2  LIG2        0.2102
@<TRIPOS>BOND
     1    39    16    1
     2    24    10    1
     3    41    16    1
     4    25    10    1
     5    16    40    1
     6    16     9    1
     7    35    14    1
     8    10    14    1
     9    10     6    1
    10    14    34    1
    11    14     8    1
    12    27    11    1
    13    20     6    1
    14    26    11    1
    15     9     6    1
    16     9    11    1
    17     9     1    1
    18     6     5    1
    19    11     7    1
    20    32    13    1
    21    23     8    1
    22     8     5    1
    23     8    15    1
    24     1    42    1
    25    33    13    1
    26    13    31    1
    27    13     3    1
    28     5    19    1
    29     5     2    1
    30    37    15    1
    31    22     7    1
    32     7    21    1
    33     7     4    1
    34    15    36    1
    35    15    38    1
    36     3     2    1
    37     3     4    1
    38     3    12    1
    39     2     4    1
    40     2    17    1
    41     4    18    1
    42    29    12    1
    43    12    28    1
    44    12    30    1
@<TRIPOS>MOLECULE
11996452_1_run_21.pdb
 42 44 0 0 0
SMALL
GASTEIGER

@<TRIPOS>ATOM
      1    O       26.4420    4.5460    5.3160 O.3     2  LIG2       -0.3886
      2    C       28.0120    1.4220    5.4030 C.3     2  LIG2       -0.0289
      3    C       29.4350    1.2100    4.9090 C.3     2  LIG2       -0.0284
      4    C       29.1150    2.4640    5.6940 C.3     2  LIG2       -0.0319
      5    C       26.6960    1.5980    4.5630 C.3     2  LIG2       -0.0294
      6    C       26.3760    2.8000    3.6370 C.3     2  LIG2       -0.0090
      7    C       29.2530    3.8920    5.1130 C.3     2  LIG2       -0.0468
      8    C       26.2900    0.3810    3.6910 C.3     2  LIG2       -0.0404
      9    C       26.8820    4.2220    4.0050 C.3     2  LIG2        0.0664
     10    C       26.5870    2.3120    2.1880 C.3     2  LIG2       -0.0471
     11    C       28.4140    4.3930    3.9270 C.3     2  LIG2       -0.0237
     12    C       30.2730    0.1470    5.6490 C.3     2  LIG2       -0.0593
     13    C       29.8130    1.2720    3.4200 C.3     2  LIG2       -0.0593
     14    C       26.6160    0.7760    2.2410 C.3     2  LIG2       -0.0498
     15    C       26.8520   -0.9920    4.1100 C.3     2  LIG2       -0.0621
     16    C       26.2100    5.2880    3.1050 C.3     2  LIG2       -0.0358
     17    H       27.7530    0.7980    6.2600 H       2  LIG2        0.0312
     18    H       29.3840    2.4930    6.7510 H       2  LIG2        0.0309
     19    H       25.9460    1.6660    5.3550 H       2  LIG2        0.0310
     20    H       25.2870    2.8950    3.7050 H       2  LIG2        0.0331
     21    H       29.0990    4.5870    5.9410 H       2  LIG2        0.0269
     22    H       30.3030    4.0300    4.8550 H       2  LIG2        0.0269
     23    H       25.2030    0.2870    3.7540 H       2  LIG2        0.0301
     24    H       25.7590    2.6430    1.5590 H       2  LIG2        0.0269
     25    H       27.4850    2.7120    1.7230 H       2  LIG2        0.0269
     26    H       28.6390    5.4580    3.8420 H       2  LIG2        0.0293
     27    H       28.7980    4.0040    2.9870 H       2  LIG2        0.0293
     28    H       31.3390    0.3590    5.5610 H       2  LIG2        0.0235
     29    H       30.0950   -0.8470    5.2400 H       2  LIG2        0.0235
     30    H       30.0400    0.1060    6.7130 H       2  LIG2        0.0235
     31    H       30.8480    1.5920    3.2960 H       2  LIG2        0.0235
     32    H       29.2010    1.9520    2.8470 H       2  LIG2        0.0235
     33    H       29.7180    0.2910    2.9520 H       2  LIG2        0.0235
     34    H       27.5880    0.3950    1.9300 H       2  LIG2        0.0268
     35    H       25.8840    0.3530    1.5510 H       2  LIG2        0.0268
     36    H       27.9340   -1.0400    4.0070 H       2  LIG2        0.0233
     37    H       26.4330   -1.7880    3.4940 H       2  LIG2        0.0233
     38    H       26.6040   -1.2190    5.1480 H       2  LIG2        0.0233
     39    H       26.5100    5.1740    2.0620 H       2  LIG2        0.0257
     40    H       26.4760    6.3040    3.4040 H       2  LIG2        0.0257
     41    H       25.1220    5.2200    3.1390 H       2  LIG2        0.0257
     42    H       26.7000    5.4500    5.5070 H       2  LIG2        0.2102
@<TRIPOS>BOND
     1    35    14    1
     2    24    10    1
     3    25    10    1
     4    34    14    1
     5    39    16    1
     6    10    14    1
     7    10     6    1
     8    14     8    1
     9    32    13    1
    10    33    13    1
    11    27    11    1
    12    16    41    1
    13    16    40    1
    14    16     9    1
    15    31    13    1
    16    13     3    1
    17    37    15    1
    18     6    20    1
    19     6     9    1
    20     6     5    1
    21     8    23    1
    22     8    15    1
    23     8     5    1
    24    26    11    1
    25    11     9    1
    26    11     7    1
    27     9     1    1
    28    36    15    1
    29    15    38    1
    30     5    19    1
    31     5     2    1
    32    22     7    1
    33     3     2    1
    34     3    12    1
    35     3     4    1
    36     7     4    1
    37     7    21    1
    38    29    12    1
    39     1    42    1
    40     2     4    1
    41     2    17    1
    42    28    12    1
    43    12    30    1
    44     4    18    1
@<TRIPOS>MOLECULE
11996452_1_run_9.pdb
 42 44 0 0 0
SMALL
GASTEIGER

@<TRIPOS>ATOM
      1    O       29.9260    3.6100    5.4860 O.3     2  LIG2       -0.3886
      2    C       28.2700    1.9530    2.8890 C.3     2  LIG2       -0.0289
      3    C       26.8070    1.5450    2.9840 C.3     2  LIG2       -0.0284
      4    C       27.2250    2.8920    3.5340 C.3     2  LIG2       -0.0319
      5    C       29.5240    1.2800    3.5550 C.3     2  LIG2       -0.0294
      6    C       29.8110    1.2250    5.0780 C.3     2  LIG2       -0.0090
      7    C       27.0890    3.2830    5.0250 C.3     2  LIG2       -0.0468
      8    C       29.8250   -0.1730    3.1010 C.3     2  LIG2       -0.0404
      9    C       29.3790    2.4020    5.9940 C.3     2  LIG2        0.0664
     10    C       29.4760   -0.2100    5.5400 C.3     2  LIG2       -0.0471
     11    C       27.8510    2.5620    6.1490 C.3     2  LIG2       -0.0237
     12    C       25.9950    1.5740    1.6740 C.3     2  LIG2       -0.0593
     13    C       26.3210    0.4170    3.9090 C.3     2  LIG2       -0.0593
     14    C       29.4030   -1.0750    4.2720 C.3     2  LIG2       -0.0498
     15    C       29.2530   -0.6050    1.7360 C.3     2  LIG2       -0.0621
     16    C       30.0140    2.2590    7.3990 C.3     2  LIG2       -0.0358
     17    H       28.5730    2.2500    1.8840 H       2  LIG2        0.0312
     18    H       27.0380    3.7770    2.9260 H       2  LIG2        0.0309
     19    H       30.3330    1.8960    3.1540 H       2  LIG2        0.0310
     20    H       30.9040    1.2490    5.1350 H       2  LIG2        0.0331
     21    H       27.3260    4.3460    5.0970 H       2  LIG2        0.0269
     22    H       26.0270    3.2410    5.2690 H       2  LIG2        0.0269
     23    H       30.9100   -0.2640    3.0080 H       2  LIG2        0.0301
     24    H       30.2640   -0.5830    6.1960 H       2  LIG2        0.0269
     25    H       28.5580   -0.2740    6.1210 H       2  LIG2        0.0269
     26    H       27.6540    3.1430    7.0520 H       2  LIG2        0.0293
     27    H       27.3860    1.6090    6.3850 H       2  LIG2        0.0293
     28    H       24.9330    1.7140    1.8750 H       2  LIG2        0.0235
     29    H       26.1100    0.6430    1.1190 H       2  LIG2        0.0235
     30    H       26.3060    2.3840    1.0130 H       2  LIG2        0.0235
     31    H       25.2900    0.5900    4.2200 H       2  LIG2        0.0235
     32    H       26.9090    0.3130    4.8090 H       2  LIG2        0.0235
     33    H       26.3500   -0.5460    3.3990 H       2  LIG2        0.0235
     34    H       28.3990   -1.4730    4.1300 H       2  LIG2        0.0268
     35    H       30.0670   -1.9360    4.3550 H       2  LIG2        0.0268
     36    H       28.1650   -0.6310    1.7370 H       2  LIG2        0.0233
     37    H       29.5990   -1.6040    1.4690 H       2  LIG2        0.0233
     38    H       29.5710    0.0720    0.9430 H       2  LIG2        0.0233
     39    H       29.6330    1.3790    7.9200 H       2  LIG2        0.0257
     40    H       29.8030    3.1220    8.0350 H       2  LIG2        0.0257
     41    H       31.0990    2.1600    7.3460 H       2  LIG2        0.0257
     42    H       29.7440    3.6540    4.5450 H       2  LIG2        0.2102
@<TRIPOS>BOND
     1    38    15    1
     2    30    12    1
     3    29    12    1
     4    37    15    1
     5    12    28    1
     6    12     3    1
     7    15    36    1
     8    15     8    1
     9    17     2    1
    10     2     3    1
    11     2     4    1
    12     2     5    1
    13    18     4    1
    14     3     4    1
    15     3    13    1
    16    23     8    1
    17     8     5    1
    18     8    14    1
    19    19     5    1
    20    33    13    1
    21     4     7    1
    22     5     6    1
    23    13    31    1
    24    13    32    1
    25    34    14    1
    26    14    35    1
    27    14    10    1
    28    42     1    1
    29     7    21    1
    30     7    22    1
    31     7    11    1
    32     6    20    1
    33     6    10    1
    34     6     9    1
    35     1     9    1
    36    10    25    1
    37    10    24    1
    38     9    11    1
    39     9    16    1
    40    11    27    1
    41    11    26    1
    42    41    16    1
    43    16    39    1
    44    16    40    1
@<TRIPOS>MOLECULE
11996452_1_run_8.pdb
 42 44 0 0 0
SMALL
GASTEIGER

@<TRIPOS>ATOM
      1    O       27.0450   -1.0040    4.1410 O.3     2  LIG2       -0.3886
      2    C       27.1180    2.3570    5.1060 C.3     2  LIG2       -0.0289
      3    C       27.0190    3.4960    4.1030 C.3     2  LIG2       -0.0284
      4    C       26.1450    2.2750    3.9090 C.3     2  LIG2       -0.0319
      5    C       28.3500    1.4370    5.4310 C.3     2  LIG2       -0.0294
      6    C       28.9860    0.4120    4.4560 C.3     2  LIG2       -0.0090
      7    C       26.2330    1.3510    2.6710 C.3     2  LIG2       -0.0468
      8    C       29.5900    2.1600    6.0190 C.3     2  LIG2       -0.0404
      9    C       28.0940   -0.3520    3.4400 C.3     2  LIG2        0.0664
     10    C       30.2920    1.0490    3.9340 C.3     2  LIG2       -0.0471
     11    C       27.4890    0.5340    2.3300 C.3     2  LIG2       -0.0237
     12    C       26.2970    4.7740    4.5780 C.3     2  LIG2       -0.0593
     13    C       28.1510    3.8350    3.1200 C.3     2  LIG2       -0.0593
     14    C       30.6240    2.2120    4.8820 C.3     2  LIG2       -0.0498
     15    C       29.3410    3.5180    6.7050 C.3     2  LIG2       -0.0621
     16    C       28.8870   -1.5090    2.7830 C.3     2  LIG2       -0.0358
     17    H       26.6330    2.5750    6.0600 H       2  LIG2        0.0312
     18    H       25.1010    2.3340    4.2240 H       2  LIG2        0.0309
     19    H       27.9480    0.8210    6.2390 H       2  LIG2        0.0310
     20    H       29.3510   -0.3810    5.1180 H       2  LIG2        0.0331
     21    H       25.3950    0.6550    2.7350 H       2  LIG2        0.0269
     22    H       25.9920    1.9620    1.8010 H       2  LIG2        0.0269
     23    H       30.0060    1.5110    6.7930 H       2  LIG2        0.0301
     24    H       31.0990    0.3150    3.9550 H       2  LIG2        0.0269
     25    H       30.2280    1.3830    2.9000 H       2  LIG2        0.0269
     26    H       27.2000   -0.1070    1.4950 H       2  LIG2        0.0293
     27    H       28.2520    1.1630    1.8800 H       2  LIG2        0.0293
     28    H       25.8810    5.3240    3.7330 H       2  LIG2        0.0235
     29    H       26.9810    5.4380    5.1050 H       2  LIG2        0.0235
     30    H       25.4710    4.5550    5.2550 H       2  LIG2        0.0235
     31    H       27.7520    4.2870    2.2110 H       2  LIG2        0.0235
     32    H       28.7310    2.9760    2.8170 H       2  LIG2        0.0235
     33    H       28.8480    4.5480    3.5590 H       2  LIG2        0.0235
     34    H       30.5930    3.1650    4.3550 H       2  LIG2        0.0268
     35    H       31.6370    2.1100    5.2760 H       2  LIG2        0.0268
     36    H       28.9980    4.2750    6.0020 H       2  LIG2        0.0233
     37    H       30.2550    3.8940    7.1650 H       2  LIG2        0.0233
     38    H       28.5930    3.4300    7.4930 H       2  LIG2        0.0233
     39    H       29.7060   -1.1310    2.1680 H       2  LIG2        0.0257
     40    H       28.2580   -2.1220    2.1340 H       2  LIG2        0.0257
     41    H       29.3230   -2.1770    3.5280 H       2  LIG2        0.0257
     42    H       27.4340   -1.5550    4.8240 H       2  LIG2        0.2102
@<TRIPOS>BOND
     1    26    11    1
     2    22     7    1
     3    27    11    1
     4    40    16    1
     5    39    16    1
     6    31    13    1
     7    11     7    1
     8    11     9    1
     9     7    21    1
    10     7     4    1
    11    16     9    1
    12    16    41    1
    13    32    13    1
    14    25    10    1
    15    13    33    1
    16    13     3    1
    17     9     1    1
    18     9     6    1
    19    28    12    1
    20     4     3    1
    21     4    18    1
    22     4     2    1
    23    10    24    1
    24    10     6    1
    25    10    14    1
    26     3    12    1
    27     3     2    1
    28     1    42    1
    29    34    14    1
    30     6    20    1
    31     6     5    1
    32    12    29    1
    33    12    30    1
    34    14    35    1
    35    14     8    1
    36     2     5    1
    37     2    17    1
    38     5     8    1
    39     5    19    1
    40    36    15    1
    41     8    15    1
    42     8    23    1
    43    15    37    1
    44    15    38    1
@<TRIPOS>MOLECULE
11996452_1_run_3.pdb
 42 44 0 0 0
SMALL
GASTEIGER

@<TRIPOS>ATOM
      1    O       30.8490   -0.2920    2.5220 O.3     2  LIG2       -0.3886
      2    C       28.8610    2.3870    3.5710 C.3     2  LIG2       -0.0289
      3    C       28.7160    2.7710    5.0360 C.3     2  LIG2       -0.0284
      4    C       30.0790    2.3580    4.5220 C.3     2  LIG2       -0.0319
      5    C       28.1960    1.1930    2.7970 C.3     2  LIG2       -0.0294
      6    C       28.4840   -0.3100    3.0460 C.3     2  LIG2       -0.0090
      7    C       30.8490    1.1230    5.0450 C.3     2  LIG2       -0.0468
      8    C       26.6470    1.2310    2.7080 C.3     2  LIG2       -0.0404
      9    C       29.9050   -0.7700    3.4700 C.3     2  LIG2        0.0664
     10    C       27.2800   -0.8660    3.8370 C.3     2  LIG2       -0.0471
     11    C       30.3280   -0.3140    4.8830 C.3     2  LIG2       -0.0237
     12    C       28.5370    4.2710    5.3430 C.3     2  LIG2       -0.0593
     13    C       27.9450    1.9050    6.0460 C.3     2  LIG2       -0.0593
     14    C       26.1440    0.1580    3.6880 C.3     2  LIG2       -0.0498
     15    C       25.9760    2.6080    2.8850 C.3     2  LIG2       -0.0621
     16    C       30.0270   -2.3110    3.3820 C.3     2  LIG2       -0.0358
     17    H       28.8450    3.2440    2.8950 H       2  LIG2        0.0312
     18    H       30.8000    3.1430    4.2890 H       2  LIG2        0.0309
     19    H       28.5600    1.3690    1.7820 H       2  LIG2        0.0310
     20    H       28.3550   -0.7640    2.0580 H       2  LIG2        0.0331
     21    H       31.8480    1.1620    4.6050 H       2  LIG2        0.0269
     22    H       31.0310    1.2880    6.1070 H       2  LIG2        0.0269
     23    H       26.3720    0.8950    1.7060 H       2  LIG2        0.0301
     24    H       26.9690   -1.8250    3.4160 H       2  LIG2        0.0269
     25    H       27.5040   -1.0660    4.8830 H       2  LIG2        0.0269
     26    H       31.1410   -0.9580    5.2250 H       2  LIG2        0.0293
     27    H       29.5470   -0.5290    5.6070 H       2  LIG2        0.0293
     28    H       28.8810    4.5080    6.3500 H       2  LIG2        0.0235
     29    H       27.4900    4.5640    5.2720 H       2  LIG2        0.0235
     30    H       29.0970    4.9040    4.6550 H       2  LIG2        0.0235
     31    H       28.3450    2.0360    7.0530 H       2  LIG2        0.0235
     32    H       27.9830    0.8480    5.8270 H       2  LIG2        0.0235
     33    H       26.8920    2.1840    6.0760 H       2  LIG2        0.0235
     34    H       25.8800    0.5880    4.6530 H       2  LIG2        0.0268
     35    H       25.2410   -0.3210    3.3070 H       2  LIG2        0.0268
     36    H       26.1160    3.0070    3.8880 H       2  LIG2        0.0233
     37    H       24.9020    2.5410    2.7120 H       2  LIG2        0.0233
     38    H       26.3750    3.3350    2.1770 H       2  LIG2        0.0233
     39    H       29.3740   -2.8040    4.1050 H       2  LIG2        0.0257
     40    H       31.0430   -2.6560    3.5830 H       2  LIG2        0.0257
     41    H       29.7540   -2.6840    2.3930 H       2  LIG2        0.0257
     42    H       31.7250   -0.3570    2.9080 H       2  LIG2        0.2102
@<TRIPOS>BOND
     1    23     8    1
     2    19     5    1
     3    20     6    1
     4    38    15    1
     5    41    16    1
     6     1    42    1
     7     1     9    1
     8     8     5    1
     9     8    15    1
    10     8    14    1
    11    37    15    1
    12     5     6    1
    13     5     2    1
    14    15    36    1
    15    17     2    1
    16     6     9    1
    17     6    10    1
    18    35    14    1
    19    16     9    1
    20    16    40    1
    21    16    39    1
    22    24    10    1
    23     9    11    1
    24     2     4    1
    25     2     3    1
    26    14    10    1
    27    14    34    1
    28    10    25    1
    29    18     4    1
    30     4     3    1
    31     4     7    1
    32    21     7    1
    33    30    12    1
    34    11     7    1
    35    11    26    1
    36    11    27    1
    37     3    12    1
    38     3    13    1
    39     7    22    1
    40    29    12    1
    41    12    28    1
    42    32    13    1
    43    13    33    1
    44    13    31    1
@<TRIPOS>MOLECULE
11996452_1_run_2.pdb
 42 44 0 0 0
SMALL
GASTEIGER

@<TRIPOS>ATOM
      1    O       29.0990    3.0840    2.4790 O.3     2  LIG2       -0.3886
      2    C       25.6570    3.4820    2.9550 C.3     2  LIG2       -0.0289
      3    C       25.0740    4.1040    4.2150 C.3     2  LIG2       -0.0284
      4    C       26.3260    4.7090    3.6150 C.3     2  LIG2       -0.0319
      5    C       26.2430    2.0390    2.7510 C.3     2  LIG2       -0.0294
      6    C       27.5320    1.4910    3.4170 C.3     2  LIG2       -0.0090
      7    C       27.6830    4.7690    4.3570 C.3     2  LIG2       -0.0468
      8    C       25.2380    0.8730    2.9490 C.3     2  LIG2       -0.0404
      9    C       28.7300    2.4420    3.6900 C.3     2  LIG2        0.0664
     10    C       27.0780    0.5550    4.5570 C.3     2  LIG2       -0.0471
     11    C       28.4620    3.5110    4.7710 C.3     2  LIG2       -0.0237
     12    C       23.7810    4.9260    4.0450 C.3     2  LIG2       -0.0593
     13    C       25.1010    3.3930    5.5780 C.3     2  LIG2       -0.0593
     14    C       25.5980    0.2340    4.3010 C.3     2  LIG2       -0.0498
     15    C       23.7430    1.2120    2.7910 C.3     2  LIG2       -0.0621
     16    C       29.9880    1.6300    4.0880 C.3     2  LIG2       -0.0358
     17    H       25.0890    3.7170    2.0520 H       2  LIG2        0.0312
     18    H       26.2230    5.6090    3.0080 H       2  LIG2        0.0309
     19    H       26.4810    2.0550    1.6850 H       2  LIG2        0.0310
     20    H       27.9300    0.7930    2.6730 H       2  LIG2        0.0331
     21    H       28.3490    5.3820    3.7470 H       2  LIG2        0.0269
     22    H       27.5290    5.3710    5.2530 H       2  LIG2        0.0269
     23    H       25.4540    0.1270    2.1810 H       2  LIG2        0.0301
     24    H       27.6640   -0.3660    4.5380 H       2  LIG2        0.0269
     25    H       27.2300    0.9760    5.5490 H       2  LIG2        0.0269
     26    H       29.4220    3.8740    5.1450 H       2  LIG2        0.0293
     27    H       28.0280    3.0600    5.6600 H       2  LIG2        0.0293
     28    H       23.6840    5.6710    4.8360 H       2  LIG2        0.0235
     29    H       22.9000    4.2850    4.0810 H       2  LIG2        0.0235
     30    H       23.7520    5.4610    3.0960 H       2  LIG2        0.0235
     31    H       25.1200    4.1190    6.3920 H       2  LIG2        0.0235
     32    H       25.9560    2.7480    5.7110 H       2  LIG2        0.0235
     33    H       24.2140    2.7750    5.7130 H       2  LIG2        0.0235
     34    H       24.9720    0.6190    5.1050 H       2  LIG2        0.0268
     35    H       25.4370   -0.8440    4.2730 H       2  LIG2        0.0268
     36    H       23.3930    1.8940    3.5650 H       2  LIG2        0.0233
     37    H       23.1320    0.3120    2.8550 H       2  LIG2        0.0233
     38    H       23.5430    1.6730    1.8230 H       2  LIG2        0.0233
     39    H       29.8470    1.1180    5.0410 H       2  LIG2        0.0257
     40    H       30.8700    2.2650    4.1940 H       2  LIG2        0.0257
     41    H       30.2310    0.8690    3.3440 H       2  LIG2        0.0257
     42    H       29.5990    3.8740    2.6950 H       2  LIG2        0.2102
@<TRIPOS>BOND
     1    19     5    1
     2    38    15    1
     3    17     2    1
     4    23     8    1
     5     1    42    1
     6     1     9    1
     7    20     6    1
     8     5     8    1
     9     5     2    1
    10     5     6    1
    11    15    37    1
    12    15     8    1
    13    15    36    1
    14     8    14    1
    15     2     4    1
    16     2     3    1
    17    18     4    1
    18    30    12    1
    19    41    16    1
    20     6     9    1
    21     6    10    1
    22     4     3    1
    23     4     7    1
    24     9    16    1
    25     9    11    1
    26    21     7    1
    27    12    29    1
    28    12     3    1
    29    12    28    1
    30    16    40    1
    31    16    39    1
    32     3    13    1
    33    35    14    1
    34    14    10    1
    35    14    34    1
    36     7    11    1
    37     7    22    1
    38    24    10    1
    39    10    25    1
    40    11    26    1
    41    11    27    1
    42    13    32    1
    43    13    33    1
    44    13    31    1
