@<TRIPOS>MOLECULE
11996452_8_run_12.pdb
 42 44 0 0 0
SMALL
GASTEIGER

@<TRIPOS>ATOM
      1    O       27.3780    5.9790    4.5070 O.3     2  LIG2       -0.3886
      2    C       27.6140    1.7280    3.0770 C.3     2  LIG2       -0.0289
      3    C       28.4220    0.5250    3.5490 C.3     2  LIG2       -0.0284
      4    C       29.0130    1.9070    3.6850 C.3     2  LIG2       -0.0319
      5    C       26.3760    2.2800    3.8420 C.3     2  LIG2       -0.0294
      6    C       26.3740    3.7800    4.2990 C.3     2  LIG2       -0.0090
      7    C       29.1240    2.6830    5.0090 C.3     2  LIG2       -0.0468
      8    C       25.0630    2.0640    3.0540 C.3     2  LIG2       -0.0404
      9    C       27.6490    4.6640    4.0430 C.3     2  LIG2        0.0664
     10    C       25.0370    4.3600    3.7870 C.3     2  LIG2       -0.0471
     11    C       28.9020    4.2010    4.8560 C.3     2  LIG2       -0.0237
     12    C       28.0200   -0.2940    4.7980 C.3     2  LIG2       -0.0593
     13    C       29.0080   -0.3770    2.4470 C.3     2  LIG2       -0.0593
     14    C       24.1210    3.1600    3.5540 C.3     2  LIG2       -0.0498
     15    C       24.4920    0.6420    3.1910 C.3     2  LIG2       -0.0621
     16    C       28.0070    4.8920    2.5490 C.3     2  LIG2       -0.0358
     17    H       27.5310    1.8840    2.0010 H       2  LIG2        0.0312
     18    H       29.8430    2.1440    3.0170 H       2  LIG2        0.0309
     19    H       26.2680    1.7160    4.7660 H       2  LIG2        0.0310
     20    H       26.2690    3.7630    5.3870 H       2  LIG2        0.0331
     21    H       28.4180    2.3110    5.7480 H       2  LIG2        0.0269
     22    H       30.1110    2.5070    5.4400 H       2  LIG2        0.0269
     23    H       25.2400    2.2560    1.9930 H       2  LIG2        0.0301
     24    H       24.5950    5.0540    4.5020 H       2  LIG2        0.0269
     25    H       25.1680    4.9090    2.8550 H       2  LIG2        0.0269
     26    H       28.8490    4.5930    5.8750 H       2  LIG2        0.0293
     27    H       29.8050    4.6420    4.4270 H       2  LIG2        0.0293
     28    H       28.8750   -0.8500    5.1840 H       2  LIG2        0.0235
     29    H       27.2440   -1.0170    4.5490 H       2  LIG2        0.0235
     30    H       27.6410    0.3000    5.6260 H       2  LIG2        0.0235
     31    H       29.8930   -0.9070    2.8020 H       2  LIG2        0.0235
     32    H       29.3040    0.1920    1.5650 H       2  LIG2        0.0235
     33    H       28.2790   -1.1200    2.1220 H       2  LIG2        0.0235
     34    H       23.3370    3.3900    2.8320 H       2  LIG2        0.0268
     35    H       23.6360    2.8630    4.4850 H       2  LIG2        0.0268
     36    H       24.2750    0.3930    4.2310 H       2  LIG2        0.0233
     37    H       25.1950   -0.1010    2.8120 H       2  LIG2        0.0233
     38    H       23.5660    0.5350    2.6240 H       2  LIG2        0.0233
     39    H       28.3490    3.9930    2.0450 H       2  LIG2        0.0257
     40    H       28.8160    5.6170    2.4390 H       2  LIG2        0.0257
     41    H       27.1660    5.2790    1.9730 H       2  LIG2        0.0257
     42    H       27.1080    5.9230    5.4270 H       2  LIG2        0.2102
@<TRIPOS>BOND
     1    32    13    1
     2    41    16    1
     3    23     8    1
     4    17     2    1
     5    39    16    1
     6    33    13    1
     7    40    16    1
     8    13    31    1
     9    13     3    1
    10    16     9    1
    11    38    15    1
    12    37    15    1
    13    34    14    1
    14    25    10    1
    15    18     4    1
    16     8    15    1
    17     8    14    1
    18     8     5    1
    19     2     3    1
    20     2     4    1
    21     2     5    1
    22    15    36    1
    23     3     4    1
    24     3    12    1
    25    14    10    1
    26    14    35    1
    27     4     7    1
    28    10     6    1
    29    10    24    1
    30     5     6    1
    31     5    19    1
    32     9     6    1
    33     9     1    1
    34     9    11    1
    35     6    20    1
    36    27    11    1
    37     1    42    1
    38    29    12    1
    39    12    28    1
    40    12    30    1
    41    11     7    1
    42    11    26    1
    43     7    22    1
    44     7    21    1
@<TRIPOS>MOLECULE
11996452_8_run_21.pdb
 42 44 0 0 0
SMALL
GASTEIGER

@<TRIPOS>ATOM
      1    O       28.7850   -0.6000    1.6050 O.3     2  LIG2       -0.3886
      2    C       28.3040    1.4440    5.5740 C.3     2  LIG2       -0.0289
      3    C       29.2830    2.1890    6.4760 C.3     2  LIG2       -0.0284
      4    C       29.7850    1.0420    5.6340 C.3     2  LIG2       -0.0319
      5    C       27.7310    2.0430    4.2570 C.3     2  LIG2       -0.0294
      6    C       27.9390    1.2580    2.9150 C.3     2  LIG2       -0.0090
      7    C       30.6220    1.1990    4.3530 C.3     2  LIG2       -0.0468
      8    C       26.2160    2.3320    4.3620 C.3     2  LIG2       -0.0404
      9    C       28.7830   -0.0680    2.9220 C.3     2  LIG2        0.0664
     10    C       26.5340    1.1600    2.2790 C.3     2  LIG2       -0.0471
     11    C       30.2930    0.1550    3.2660 C.3     2  LIG2       -0.0237
     12    C       29.7240    3.6420    6.1830 C.3     2  LIG2       -0.0593
     13    C       29.1440    1.9340    7.9880 C.3     2  LIG2       -0.0593
     14    C       25.7050    2.2700    2.9210 C.3     2  LIG2       -0.0498
     15    C       25.8910    3.6530    5.0810 C.3     2  LIG2       -0.0621
     16    C       28.1860   -1.2300    3.7630 C.3     2  LIG2       -0.0358
     17    H       27.5990    0.7660    6.0540 H       2  LIG2        0.0312
     18    H       30.0540    0.1310    6.1720 H       2  LIG2        0.0309
     19    H       28.2100    3.0050    4.0830 H       2  LIG2        0.0310
     20    H       28.4940    1.9310    2.2560 H       2  LIG2        0.0331
     21    H       30.5000    2.1890    3.9170 H       2  LIG2        0.0269
     22    H       31.6800    1.1260    4.6100 H       2  LIG2        0.0269
     23    H       25.7280    1.5210    4.9070 H       2  LIG2        0.0301
     24    H       26.5690    1.2770    1.1960 H       2  LIG2        0.0269
     25    H       26.0700    0.1940    2.4770 H       2  LIG2        0.0269
     26    H       30.8330    0.4810    2.3740 H       2  LIG2        0.0293
     27    H       30.7520   -0.7950    3.5480 H       2  LIG2        0.0293
     28    H       30.6640    3.8670    6.6880 H       2  LIG2        0.0235
     29    H       28.9790    4.3490    6.5470 H       2  LIG2        0.0235
     30    H       29.8810    3.8640    5.1310 H       2  LIG2        0.0235
     31    H       30.0890    2.1100    8.5040 H       2  LIG2        0.0235
     32    H       28.8430    0.9080    8.2060 H       2  LIG2        0.0235
     33    H       28.3940    2.5920    8.4280 H       2  LIG2        0.0235
     34    H       24.6380    2.0520    2.8720 H       2  LIG2        0.0268
     35    H       25.8720    3.2180    2.4070 H       2  LIG2        0.0268
     36    H       26.3370    4.5090    4.5730 H       2  LIG2        0.0233
     37    H       26.2660    3.6430    6.1050 H       2  LIG2        0.0233
     38    H       24.8140    3.8190    5.1280 H       2  LIG2        0.0233
     39    H       28.2020   -1.0400    4.8330 H       2  LIG2        0.0257
     40    H       28.7460   -2.1550    3.6190 H       2  LIG2        0.0257
     41    H       27.1520   -1.4490    3.4950 H       2  LIG2        0.0257
     42    H       29.3110   -1.4030    1.6050 H       2  LIG2        0.2102
@<TRIPOS>BOND
     1    24    10    1
     2    42     1    1
     3     1     9    1
     4    20     6    1
     5    10    25    1
     6    10     6    1
     7    10    14    1
     8    26    11    1
     9    35    14    1
    10    34    14    1
    11     6     9    1
    12     6     5    1
    13    14     8    1
    14     9    11    1
    15     9    16    1
    16    11    27    1
    17    11     7    1
    18    41    16    1
    19    40    16    1
    20    16    39    1
    21    21     7    1
    22    19     5    1
    23     5     8    1
    24     5     2    1
    25     7    22    1
    26     7     4    1
    27     8    23    1
    28     8    15    1
    29    36    15    1
    30    15    38    1
    31    15    37    1
    32    30    12    1
    33     2     4    1
    34     2    17    1
    35     2     3    1
    36     4    18    1
    37     4     3    1
    38    12     3    1
    39    12    29    1
    40    12    28    1
    41     3    13    1
    42    13    32    1
    43    13    33    1
    44    13    31    1
@<TRIPOS>MOLECULE
11996452_8_run_21.pdb
 42 44 0 0 0
SMALL
GASTEIGER

@<TRIPOS>ATOM
      1    O       22.4620    3.8930    3.9630 O.3     2  LIG2       -0.3886
      2    C       26.8120    2.8690    4.4010 C.3     2  LIG2       -0.0289
      3    C       27.6560    1.7090    3.8830 C.3     2  LIG2       -0.0284
      4    C       26.2040    1.4710    4.2170 C.3     2  LIG2       -0.0319
      5    C       26.3200    4.0380    3.4990 C.3     2  LIG2       -0.0294
      6    C       24.7830    4.3310    3.4100 C.3     2  LIG2       -0.0090
      7    C       25.0830    1.3100    3.1750 C.3     2  LIG2       -0.0468
      8    C       26.9980    5.3780    3.8660 C.3     2  LIG2       -0.0404
      9    C       23.7750    3.3920    4.1690 C.3     2  LIG2        0.0664
     10    C       24.6390    5.8430    3.6920 C.3     2  LIG2       -0.0471
     11    C       23.7400    1.9320    3.6090 C.3     2  LIG2       -0.0237
     12    C       28.1560    1.6490    2.4200 C.3     2  LIG2       -0.0593
     13    C       28.6970    1.1350    4.8610 C.3     2  LIG2       -0.0593
     14    C       26.0100    6.4540    3.4110 C.3     2  LIG2       -0.0498
     15    C       28.4080    5.5370    3.2710 C.3     2  LIG2       -0.0621
     16    C       23.9070    3.3930    5.7160 C.3     2  LIG2       -0.0358
     17    H       26.9820    3.1900    5.4290 H       2  LIG2        0.0312
     18    H       26.0060    0.8690    5.1050 H       2  LIG2        0.0309
     19    H       26.6140    3.8240    2.4730 H       2  LIG2        0.0310
     20    H       24.5160    4.2200    2.3550 H       2  LIG2        0.0331
     21    H       25.3630    1.7470    2.2180 H       2  LIG2        0.0269
     22    H       24.9370    0.2480    2.9740 H       2  LIG2        0.0269
     23    H       27.0780    5.4600    4.9520 H       2  LIG2        0.0301
     24    H       23.8730    6.3020    3.0660 H       2  LIG2        0.0269
     25    H       24.3570    6.0340    4.7270 H       2  LIG2        0.0269
     26    H       23.0980    1.8890    2.7260 H       2  LIG2        0.0293
     27    H       23.2700    1.2680    4.3380 H       2  LIG2        0.0293
     28    H       28.4050    0.6240    2.1430 H       2  LIG2        0.0235
     29    H       29.0560    2.2500    2.2980 H       2  LIG2        0.0235
     30    H       27.4400    2.0010    1.6830 H       2  LIG2        0.0235
     31    H       28.9260    0.0950    4.6260 H       2  LIG2        0.0235
     32    H       28.3500    1.1640    5.8950 H       2  LIG2        0.0235
     33    H       29.6290    1.7010    4.8160 H       2  LIG2        0.0235
     34    H       26.1480    7.3930    3.9480 H       2  LIG2        0.0268
     35    H       26.1250    6.6630    2.3460 H       2  LIG2        0.0268
     36    H       28.3950    5.4830    2.1810 H       2  LIG2        0.0233
     37    H       29.0760    4.7540    3.6330 H       2  LIG2        0.0233
     38    H       28.8460    6.4960    3.5500 H       2  LIG2        0.0233
     39    H       24.8270    2.9370    6.0710 H       2  LIG2        0.0257
     40    H       23.0990    2.8290    6.1850 H       2  LIG2        0.0257
     41    H       23.8670    4.3980    6.1370 H       2  LIG2        0.0257
     42    H       21.8360    3.2120    4.2220 H       2  LIG2        0.2102
@<TRIPOS>BOND
     1    30    12    1
     2    28    12    1
     3    36    15    1
     4    21     7    1
     5    29    12    1
     6    35    14    1
     7    20     6    1
     8    12     3    1
     9    19     5    1
    10    26    11    1
    11    22     7    1
    12    24    10    1
    13     7    11    1
    14     7     4    1
    15    15    38    1
    16    15    37    1
    17    15     8    1
    18     6     5    1
    19     6    10    1
    20     6     9    1
    21    14    10    1
    22    14     8    1
    23    14    34    1
    24     5     8    1
    25     5     2    1
    26    11     9    1
    27    11    27    1
    28    10    25    1
    29     8    23    1
    30     3     4    1
    31     3     2    1
    32     3    13    1
    33     1     9    1
    34     1    42    1
    35     9    16    1
    36     4     2    1
    37     4    18    1
    38     2    17    1
    39    31    13    1
    40    33    13    1
    41    13    32    1
    42    16    39    1
    43    16    41    1
    44    16    40    1
@<TRIPOS>MOLECULE
11996452_8_run_24.pdb
 42 44 0 0 0
SMALL
GASTEIGER

@<TRIPOS>ATOM
      1    O       29.2080   -1.8450    3.9770 O.3     2  LIG2       -0.3886
      2    C       28.6190    2.6030    4.1510 C.3     2  LIG2       -0.0289
      3    C       27.4220    3.4980    3.8460 C.3     2  LIG2       -0.0284
      4    C       27.6040    2.2200    3.0640 C.3     2  LIG2       -0.0319
      5    C       28.7270    1.7290    5.4330 C.3     2  LIG2       -0.0294
      6    C       28.9400    0.1830    5.2810 C.3     2  LIG2       -0.0090
      7    C       26.7760    0.9400    3.2770 C.3     2  LIG2       -0.0468
      8    C       29.8390    2.2290    6.3850 C.3     2  LIG2       -0.0404
      9    C       28.9610   -0.4530    3.8430 C.3     2  LIG2        0.0664
     10    C       30.1470   -0.1540    6.1840 C.3     2  LIG2       -0.0471
     11    C       27.5880   -0.3590    3.0990 C.3     2  LIG2       -0.0237
     12    C       26.2470    3.6620    4.8380 C.3     2  LIG2       -0.0593
     13    C       27.7270    4.8140    3.1070 C.3     2  LIG2       -0.0593
     14    C       30.2530    0.9940    7.1860 C.3     2  LIG2       -0.0498
     15    C       29.4100    3.4220    7.2560 C.3     2  LIG2       -0.0621
     16    C       30.1240    0.0180    2.9270 C.3     2  LIG2       -0.0358
     17    H       29.5950    2.9390    3.8020 H       2  LIG2        0.0312
     18    H       27.8950    2.3310    2.0180 H       2  LIG2        0.0309
     19    H       27.7950    1.8190    5.9870 H       2  LIG2        0.0310
     20    H       28.0860   -0.2890    5.7740 H       2  LIG2        0.0331
     21    H       26.3210    0.9210    4.2660 H       2  LIG2        0.0269
     22    H       25.9400    0.9390    2.5760 H       2  LIG2        0.0269
     23    H       30.7090    2.5340    5.7990 H       2  LIG2        0.0301
     24    H       30.0180   -1.1070    6.6970 H       2  LIG2        0.0269
     25    H       31.0700   -0.2260    5.6110 H       2  LIG2        0.0269
     26    H       26.9290   -1.1640    3.4340 H       2  LIG2        0.0293
     27    H       27.7340   -0.5330    2.0310 H       2  LIG2        0.0293
     28    H       25.3550    4.0170    4.3210 H       2  LIG2        0.0235
     29    H       26.4950    4.3950    5.6060 H       2  LIG2        0.0235
     30    H       25.9610    2.7500    5.3550 H       2  LIG2        0.0235
     31    H       26.8570    5.1600    2.5460 H       2  LIG2        0.0235
     32    H       28.5480    4.7060    2.3970 H       2  LIG2        0.0235
     33    H       28.0080    5.6000    3.8090 H       2  LIG2        0.0235
     34    H       31.2630    1.0840    7.5880 H       2  LIG2        0.0268
     35    H       29.5770    0.8310    8.0280 H       2  LIG2        0.0268
     36    H       28.5520    3.1760    7.8840 H       2  LIG2        0.0233
     37    H       29.1350    4.2780    6.6400 H       2  LIG2        0.0233
     38    H       30.2210    3.7390    7.9130 H       2  LIG2        0.0233
     39    H       30.0420    1.0590    2.6260 H       2  LIG2        0.0257
     40    H       30.1580   -0.5550    2.0000 H       2  LIG2        0.0257
     41    H       31.0990   -0.1000    3.3990 H       2  LIG2        0.0257
     42    H       28.8490   -2.1350    4.8190 H       2  LIG2        0.2102
@<TRIPOS>BOND
     1    40    16    1
     2    18     4    1
     3    27    11    1
     4    32    13    1
     5    31    13    1
     6    22     7    1
     7    39    16    1
     8    16    41    1
     9    16     9    1
    10     4     7    1
    11     4     3    1
    12     4     2    1
    13    11     7    1
    14    11    26    1
    15    11     9    1
    16    13    33    1
    17    13     3    1
    18     7    21    1
    19    17     2    1
    20     9     1    1
    21     9     6    1
    22     3     2    1
    23     3    12    1
    24     1    42    1
    25     2     5    1
    26    28    12    1
    27    12    30    1
    28    12    29    1
    29     6     5    1
    30     6    20    1
    31     6    10    1
    32     5    19    1
    33     5     8    1
    34    25    10    1
    35    23     8    1
    36    10    24    1
    37    10    14    1
    38     8    14    1
    39     8    15    1
    40    37    15    1
    41    14    34    1
    42    14    35    1
    43    15    36    1
    44    15    38    1
@<TRIPOS>MOLECULE
11996452_8_run_12.pdb
 42 44 0 0 0
SMALL
GASTEIGER

@<TRIPOS>ATOM
      1    O       30.6940    3.6860    5.3680 O.3     2  LIG2       -0.3886
      2    C       26.9350    1.4380    4.3750 C.3     2  LIG2       -0.0289
      3    C       25.7710    1.7380    3.4370 C.3     2  LIG2       -0.0284
      4    C       26.4850    2.8820    4.1140 C.3     2  LIG2       -0.0319
      5    C       28.3360    0.9760    3.8780 C.3     2  LIG2       -0.0294
      6    C       29.5970    1.8170    4.2780 C.3     2  LIG2       -0.0090
      7    C       27.4790    3.8270    3.4160 C.3     2  LIG2       -0.0468
      8    C       28.6410   -0.4850    4.2810 C.3     2  LIG2       -0.0404
      9    C       29.4080    3.1420    5.1020 C.3     2  LIG2        0.0664
     10    C       30.5990    0.7960    4.8620 C.3     2  LIG2       -0.0471
     11    C       28.6530    4.2640    4.3150 C.3     2  LIG2       -0.0237
     12    C       25.8750    1.5290    1.9080 C.3     2  LIG2       -0.0593
     13    C       24.3660    1.3880    3.9620 C.3     2  LIG2       -0.0593
     14    C       30.1680   -0.5680    4.3270 C.3     2  LIG2       -0.0498
     15    C       27.9900   -1.5270    3.3550 C.3     2  LIG2       -0.0621
     16    C       28.8100    2.9590    6.5240 C.3     2  LIG2       -0.0358
     17    H       26.6940    1.0260    5.3550 H       2  LIG2        0.0312
     18    H       25.9290    3.4030    4.8960 H       2  LIG2        0.0309
     19    H       28.3340    0.9930    2.7900 H       2  LIG2        0.0310
     20    H       30.0520    2.1430    3.3380 H       2  LIG2        0.0331
     21    H       27.8930    3.3750    2.5170 H       2  LIG2        0.0269
     22    H       26.9430    4.7130    3.0720 H       2  LIG2        0.0269
     23    H       28.2830   -0.6650    5.2970 H       2  LIG2        0.0301
     24    H       31.6250    1.0220    4.5720 H       2  LIG2        0.0269
     25    H       30.5740    0.7870    5.9510 H       2  LIG2        0.0269
     26    H       29.3490    4.7870    3.6550 H       2  LIG2        0.0293
     27    H       28.2930    5.0250    5.0110 H       2  LIG2        0.0293
     28    H       25.1220    2.1230    1.3880 H       2  LIG2        0.0235
     29    H       25.7040    0.4840    1.6520 H       2  LIG2        0.0235
     30    H       26.8340    1.8060    1.4780 H       2  LIG2        0.0235
     31    H       23.6040    2.0040    3.4850 H       2  LIG2        0.0235
     32    H       24.2800    1.5410    5.0380 H       2  LIG2        0.0235
     33    H       24.1250    0.3430    3.7630 H       2  LIG2        0.0235
     34    H       30.5180   -1.3780    4.9670 H       2  LIG2        0.0268
     35    H       30.5790   -0.7340    3.3290 H       2  LIG2        0.0268
     36    H       28.3220   -1.4130    2.3220 H       2  LIG2        0.0233
     37    H       26.9030   -1.4340    3.3650 H       2  LIG2        0.0233
     38    H       28.2340   -2.5410    3.6720 H       2  LIG2        0.0233
     39    H       27.7710    2.6420    6.5160 H       2  LIG2        0.0257
     40    H       28.8290    3.8930    7.0880 H       2  LIG2        0.0257
     41    H       29.3610    2.2290    7.1160 H       2  LIG2        0.0257
     42    H       31.1480    3.8080    4.5310 H       2  LIG2        0.2102
@<TRIPOS>BOND
     1    28    12    1
     2    30    12    1
     3    29    12    1
     4    12     3    1
     5    36    15    1
     6    21     7    1
     7    19     5    1
     8    22     7    1
     9    35    14    1
    10    20     6    1
    11    15    37    1
    12    15    38    1
    13    15     8    1
    14     7     4    1
    15     7    11    1
    16     3    13    1
    17     3     4    1
    18     3     2    1
    19    31    13    1
    20    26    11    1
    21    33    13    1
    22     5     6    1
    23     5     8    1
    24     5     2    1
    25    13    32    1
    26     4     2    1
    27     4    18    1
    28     6    10    1
    29     6     9    1
    30     8    14    1
    31     8    23    1
    32    11    27    1
    33    11     9    1
    34    14    10    1
    35    14    34    1
    36     2    17    1
    37    42     1    1
    38    24    10    1
    39    10    25    1
    40     9     1    1
    41     9    16    1
    42    39    16    1
    43    16    40    1
    44    16    41    1
@<TRIPOS>MOLECULE
11996452_8_run_19.pdb
 42 44 0 0 0
SMALL
GASTEIGER

@<TRIPOS>ATOM
      1    O       29.0790    3.6430    7.0230 O.3     2  LIG2       -0.3886
      2    C       28.9960    0.7540    3.5860 C.3     2  LIG2       -0.0289
      3    C       29.1100   -0.7650    3.5130 C.3     2  LIG2       -0.0284
      4    C       29.8540   -0.0220    4.5950 C.3     2  LIG2       -0.0319
      5    C       27.7180    1.4920    4.0830 C.3     2  LIG2       -0.0294
      6    C       27.8390    2.4900    5.2860 C.3     2  LIG2       -0.0090
      7    C       29.4330    0.0180    6.0740 C.3     2  LIG2       -0.0468
      8    C       27.0160    2.2660    2.9440 C.3     2  LIG2       -0.0404
      9    C       29.2260    2.6620    6.0060 C.3     2  LIG2        0.0664
     10    C       27.1640    3.7930    4.8030 C.3     2  LIG2       -0.0471
     11    C       29.7020    1.3750    6.7570 C.3     2  LIG2       -0.0237
     12    C       27.9230   -1.6940    3.8580 C.3     2  LIG2       -0.0593
     13    C       29.9510   -1.3280    2.3520 C.3     2  LIG2       -0.0593
     14    C       26.2520    3.3890    3.6470 C.3     2  LIG2       -0.0498
     15    C       26.1330    1.3780    2.0510 C.3     2  LIG2       -0.0621
     16    C       30.3640    3.2450    5.1240 C.3     2  LIG2       -0.0358
     17    H       29.5350    1.3330    2.8370 H       2  LIG2        0.0312
     18    H       30.9400    0.0180    4.4930 H       2  LIG2        0.0309
     19    H       27.0040    0.7440    4.4230 H       2  LIG2        0.0310
     20    H       27.1740    2.1060    6.0640 H       2  LIG2        0.0331
     21    H       28.3770   -0.2160    6.1940 H       2  LIG2        0.0269
     22    H       29.9650   -0.7660    6.6150 H       2  LIG2        0.0269
     23    H       27.7670    2.7420    2.3100 H       2  LIG2        0.0301
     24    H       26.5950    4.2740    5.5990 H       2  LIG2        0.0269
     25    H       27.8970    4.5200    4.4560 H       2  LIG2        0.0269
     26    H       29.2150    1.3130    7.7330 H       2  LIG2        0.0293
     27    H       30.7700    1.4480    6.9740 H       2  LIG2        0.0293
     28    H       28.2790   -2.6950    4.1050 H       2  LIG2        0.0235
     29    H       27.2490   -1.7860    3.0070 H       2  LIG2        0.0235
     30    H       27.3220   -1.3650    4.7010 H       2  LIG2        0.0235
     31    H       30.3530   -2.3120    2.6000 H       2  LIG2        0.0235
     32    H       30.7970   -0.6850    2.1070 H       2  LIG2        0.0235
     33    H       29.3490   -1.4310    1.4480 H       2  LIG2        0.0235
     34    H       26.0510    4.2300    2.9820 H       2  LIG2        0.0268
     35    H       25.2920    3.0310    4.0240 H       2  LIG2        0.0268
     36    H       25.3450    0.8850    2.6230 H       2  LIG2        0.0233
     37    H       26.7240    0.6010    1.5650 H       2  LIG2        0.0233
     38    H       25.6540    1.9640    1.2650 H       2  LIG2        0.0233
     39    H       30.6890    2.5700    4.3390 H       2  LIG2        0.0257
     40    H       31.2550    3.4620    5.7150 H       2  LIG2        0.0257
     41    H       30.0780    4.1800    4.6420 H       2  LIG2        0.0257
     42    H       29.8760    3.6430    7.5590 H       2  LIG2        0.2102
@<TRIPOS>BOND
     1    38    15    1
     2    33    13    1
     3    37    15    1
     4    15    36    1
     5    15     8    1
     6    32    13    1
     7    23     8    1
     8    13    31    1
     9    13     3    1
    10    17     2    1
    11     8    14    1
    12     8     5    1
    13    34    14    1
    14    29    12    1
    15     3     2    1
    16     3    12    1
    17     3     4    1
    18     2     5    1
    19     2     4    1
    20    14    35    1
    21    14    10    1
    22    12    28    1
    23    12    30    1
    24     5    19    1
    25     5     6    1
    26    39    16    1
    27    25    10    1
    28    18     4    1
    29     4     7    1
    30    41    16    1
    31    10     6    1
    32    10    24    1
    33    16    40    1
    34    16     9    1
    35     6     9    1
    36     6    20    1
    37     9    11    1
    38     9     1    1
    39     7    21    1
    40     7    22    1
    41     7    11    1
    42    11    27    1
    43    11    26    1
    44     1    42    1
@<TRIPOS>MOLECULE
11996452_8_run_22.pdb
 42 44 0 0 0
SMALL
GASTEIGER

@<TRIPOS>ATOM
      1    O       30.1310    1.0050    5.7690 O.3     2  LIG2       -0.3886
      2    C       26.9360    1.7670    2.7070 C.3     2  LIG2       -0.0289
      3    C       25.5900    1.1050    2.4350 C.3     2  LIG2       -0.0284
      4    C       26.7230    0.2710    2.9810 C.3     2  LIG2       -0.0319
      5    C       27.1880    2.7310    3.9020 C.3     2  LIG2       -0.0294
      6    C       28.3310    2.3920    4.9210 C.3     2  LIG2       -0.0090
      7    C       26.8270   -0.2110    4.4390 C.3     2  LIG2       -0.0468
      8    C       27.4410    4.1830    3.4330 C.3     2  LIG2       -0.0404
      9    C       29.1370    1.0530    4.7550 C.3     2  LIG2        0.0664
     10    C       29.1770    3.6810    5.0280 C.3     2  LIG2       -0.0471
     11    C       28.2710   -0.2290    4.9820 C.3     2  LIG2       -0.0237
     12    C       24.3390    1.4080    3.2930 C.3     2  LIG2       -0.0593
     13    C       25.2220    0.8930    0.9540 C.3     2  LIG2       -0.0593
     14    C       28.2750    4.8150    4.5480 C.3     2  LIG2       -0.0498
     15    C       26.1510    4.9550    3.1050 C.3     2  LIG2       -0.0621
     16    C       29.9710    0.9390    3.4490 C.3     2  LIG2       -0.0358
     17    H       27.5540    2.0160    1.8440 H       2  LIG2        0.0312
     18    H       27.1640   -0.4520    2.2940 H       2  LIG2        0.0309
     19    H       26.2860    2.7640    4.5090 H       2  LIG2        0.0310
     20    H       27.8450    2.2990    5.8960 H       2  LIG2        0.0331
     21    H       26.2240    0.4020    5.1050 H       2  LIG2        0.0269
     22    H       26.4060   -1.2150    4.5100 H       2  LIG2        0.0269
     23    H       28.0650    4.1720    2.5360 H       2  LIG2        0.0301
     24    H       29.5170    3.8590    6.0480 H       2  LIG2        0.0269
     25    H       30.0670    3.6290    4.4030 H       2  LIG2        0.0269
     26    H       28.1780   -0.4310    6.0520 H       2  LIG2        0.0293
     27    H       28.7850   -1.1000    4.5700 H       2  LIG2        0.0293
     28    H       23.6070    0.6050    3.2000 H       2  LIG2        0.0235
     29    H       23.8600    2.3280    2.9610 H       2  LIG2        0.0235
     30    H       24.5370    1.5210    4.3560 H       2  LIG2        0.0235
     31    H       24.5240    0.0630    0.8380 H       2  LIG2        0.0235
     32    H       26.0960    0.6690    0.3420 H       2  LIG2        0.0235
     33    H       24.7540    1.7860    0.5370 H       2  LIG2        0.0235
     34    H       28.8560    5.6670    4.1940 H       2  LIG2        0.0268
     35    H       27.6360    5.1660    5.3610 H       2  LIG2        0.0268
     36    H       25.4880    5.0190    3.9690 H       2  LIG2        0.0233
     37    H       25.5990    4.4710    2.2990 H       2  LIG2        0.0233
     38    H       26.3750    5.9730    2.7830 H       2  LIG2        0.0233
     39    H       29.3610    0.8540    2.5550 H       2  LIG2        0.0257
     40    H       30.6060    0.0520    3.4580 H       2  LIG2        0.0257
     41    H       30.6330    1.7920    3.3030 H       2  LIG2        0.0257
     42    H       30.6280    0.1910    5.6650 H       2  LIG2        0.2102
@<TRIPOS>BOND
     1    32    13    1
     2    33    13    1
     3    31    13    1
     4    13     3    1
     5    17     2    1
     6    18     4    1
     7    37    15    1
     8     3     2    1
     9     3     4    1
    10     3    12    1
    11    23     8    1
    12    39    16    1
    13     2     4    1
    14     2     5    1
    15    38    15    1
    16    29    12    1
    17     4     7    1
    18    15     8    1
    19    15    36    1
    20    28    12    1
    21    12    30    1
    22    41    16    1
    23     8     5    1
    24     8    14    1
    25    16    40    1
    26    16     9    1
    27     5    19    1
    28     5     6    1
    29    34    14    1
    30    25    10    1
    31     7    22    1
    32     7    11    1
    33     7    21    1
    34    14    10    1
    35    14    35    1
    36    27    11    1
    37     9     6    1
    38     9    11    1
    39     9     1    1
    40     6    10    1
    41     6    20    1
    42    11    26    1
    43    10    24    1
    44    42     1    1
@<TRIPOS>MOLECULE
11996452_8_run_8.pdb
 42 44 0 0 0
SMALL
GASTEIGER

@<TRIPOS>ATOM
      1    O       31.1260    0.8440    5.3500 O.3     2  LIG2       -0.3886
      2    C       26.9620    2.3370    4.5770 C.3     2  LIG2       -0.0289
      3    C       26.3540    3.7360    4.5620 C.3     2  LIG2       -0.0284
      4    C       27.4970    3.4390    5.5020 C.3     2  LIG2       -0.0319
      5    C       27.8730    1.7900    3.4400 C.3     2  LIG2       -0.0294
      6    C       29.3120    1.2820    3.8000 C.3     2  LIG2       -0.0090
      7    C       28.9460    3.9110    5.2910 C.3     2  LIG2       -0.0468
      8    C       27.1930    0.6480    2.6500 C.3     2  LIG2       -0.0404
      9    C       29.8240    1.4090    5.2810 C.3     2  LIG2        0.0664
     10    C       29.4180   -0.1250    3.1680 C.3     2  LIG2       -0.0471
     11    C       30.0040    2.8890    5.7540 C.3     2  LIG2       -0.0237
     12    C       26.5380    4.6980    3.3650 C.3     2  LIG2       -0.0593
     13    C       24.9560    3.8760    5.1910 C.3     2  LIG2       -0.0593
     14    C       28.3490   -0.1750    2.0790 C.3     2  LIG2       -0.0498
     15    C       26.1970    1.1430    1.5880 C.3     2  LIG2       -0.0621
     16    C       29.0320    0.5800    6.3300 C.3     2  LIG2       -0.0358
     17    H       26.3840    1.5450    5.0520 H       2  LIG2        0.0312
     18    H       27.2490    3.3930    6.5640 H       2  LIG2        0.0309
     19    H       28.0420    2.5910    2.7230 H       2  LIG2        0.0310
     20    H       30.0040    1.8980    3.2190 H       2  LIG2        0.0331
     21    H       29.1400    4.1460    4.2460 H       2  LIG2        0.0269
     22    H       29.0950    4.8490    5.8290 H       2  LIG2        0.0269
     23    H       26.6540   -0.0020    3.3430 H       2  LIG2        0.0301
     24    H       30.4080   -0.3090    2.7510 H       2  LIG2        0.0269
     25    H       29.2330   -0.9090    3.9010 H       2  LIG2        0.0269
     26    H       30.9620    3.2780    5.4010 H       2  LIG2        0.0293
     27    H       30.0650    2.9230    6.8440 H       2  LIG2        0.0293
     28    H       26.3680    5.7300    3.6730 H       2  LIG2        0.0235
     29    H       25.8230    4.4680    2.5760 H       2  LIG2        0.0235
     30    H       27.5260    4.6710    2.9110 H       2  LIG2        0.0235
     31    H       24.7850    4.8930    5.5460 H       2  LIG2        0.0235
     32    H       24.8190    3.2080    6.0430 H       2  LIG2        0.0235
     33    H       24.1760    3.6390    4.4660 H       2  LIG2        0.0235
     34    H       28.0530   -1.2010    1.8550 H       2  LIG2        0.0268
     35    H       28.7240    0.2690    1.1550 H       2  LIG2        0.0268
     36    H       26.6800    1.7860    0.8510 H       2  LIG2        0.0233
     37    H       25.3890    1.7140    2.0460 H       2  LIG2        0.0233
     38    H       25.7450    0.3070    1.0540 H       2  LIG2        0.0233
     39    H       28.0220    0.9440    6.4920 H       2  LIG2        0.0257
     40    H       29.5170    0.6070    7.3070 H       2  LIG2        0.0257
     41    H       28.9510   -0.4710    6.0540 H       2  LIG2        0.0257
     42    H       31.6190    1.1280    4.5780 H       2  LIG2        0.2102
@<TRIPOS>BOND
     1    36    15    1
     2    38    15    1
     3    35    14    1
     4    15    37    1
     5    15     8    1
     6    34    14    1
     7    14     8    1
     8    14    10    1
     9    29    12    1
    10     8    23    1
    11     8     5    1
    12    19     5    1
    13    24    10    1
    14    30    12    1
    15    10     6    1
    16    10    25    1
    17    20     6    1
    18    12    28    1
    19    12     3    1
    20     5     6    1
    21     5     2    1
    22     6     9    1
    23    21     7    1
    24    33    13    1
    25     3     2    1
    26     3    13    1
    27     3     4    1
    28     2    17    1
    29     2     4    1
    30    42     1    1
    31    13    31    1
    32    13    32    1
    33     9     1    1
    34     9    11    1
    35     9    16    1
    36     7     4    1
    37     7    11    1
    38     7    22    1
    39    26    11    1
    40     4    18    1
    41    11    27    1
    42    41    16    1
    43    16    39    1
    44    16    40    1
@<TRIPOS>MOLECULE
11996452_8_run_9.pdb
 42 44 0 0 0
SMALL
GASTEIGER

@<TRIPOS>ATOM
      1    O       26.5630    4.8160    3.5870 O.3     2  LIG2       -0.3886
      2    C       27.4860    0.4900    4.3650 C.3     2  LIG2       -0.0289
      3    C       27.5920   -0.7230    3.4480 C.3     2  LIG2       -0.0284
      4    C       26.6200    0.3780    3.1020 C.3     2  LIG2       -0.0319
      5    C       28.5740    1.6000    4.4460 C.3     2  LIG2       -0.0294
      6    C       28.1630    3.0870    4.1660 C.3     2  LIG2       -0.0090
      7    C       26.8380    1.4190    1.9900 C.3     2  LIG2       -0.0468
      8    C       29.3040    1.5990    5.8090 C.3     2  LIG2       -0.0404
      9    C       26.6850    3.4080    3.7370 C.3     2  LIG2        0.0664
     10    C       28.7080    3.8930    5.3660 C.3     2  LIG2       -0.0471
     11    C       26.2980    2.8210    2.3400 C.3     2  LIG2       -0.0237
     12    C       28.8420   -0.9830    2.5740 C.3     2  LIG2       -0.0593
     13    C       26.9940   -2.0360    3.9840 C.3     2  LIG2       -0.0593
     14    C       29.8080    3.0330    5.9830 C.3     2  LIG2       -0.0498
     15    C       30.4080    0.5340    5.9140 C.3     2  LIG2       -0.0621
     16    C       25.6000    3.0790    4.8000 C.3     2  LIG2       -0.0358
     17    H       26.9720    0.3540    5.3170 H       2  LIG2        0.0312
     18    H       25.5610    0.1400    3.2170 H       2  LIG2        0.0309
     19    H       29.3350    1.3850    3.6980 H       2  LIG2        0.0310
     20    H       28.7690    3.4120    3.3160 H       2  LIG2        0.0331
     21    H       27.8920    1.5170    1.7380 H       2  LIG2        0.0269
     22    H       26.3550    1.0670    1.0770 H       2  LIG2        0.0269
     23    H       28.5810    1.4180    6.6080 H       2  LIG2        0.0301
     24    H       29.0980    4.8640    5.0590 H       2  LIG2        0.0269
     25    H       27.9320    4.0840    6.1060 H       2  LIG2        0.0269
     26    H       26.6600    3.4800    1.5470 H       2  LIG2        0.0293
     27    H       25.2110    2.8110    2.2310 H       2  LIG2        0.0293
     28    H       28.5990   -1.6490    1.7460 H       2  LIG2        0.0235
     29    H       29.6260   -1.4610    3.1610 H       2  LIG2        0.0235
     30    H       29.2790   -0.0910    2.1330 H       2  LIG2        0.0235
     31    H       26.7030   -2.6980    3.1670 H       2  LIG2        0.0235
     32    H       26.1060   -1.8650    4.5940 H       2  LIG2        0.0235
     33    H       27.7150   -2.5690    4.6050 H       2  LIG2        0.0235
     34    H       29.9740    3.2860    7.0310 H       2  LIG2        0.0268
     35    H       30.7510    3.1810    5.4540 H       2  LIG2        0.0268
     36    H       31.1760    0.6710    5.1510 H       2  LIG2        0.0233
     37    H       29.9970   -0.4690    5.7940 H       2  LIG2        0.0233
     38    H       30.8980    0.5720    6.8880 H       2  LIG2        0.0233
     39    H       25.4740    2.0140    4.9720 H       2  LIG2        0.0257
     40    H       24.6190    3.4470    4.4950 H       2  LIG2        0.0257
     41    H       25.8140    3.5340    5.7670 H       2  LIG2        0.0257
     42    H       27.2620    5.1180    3.0020 H       2  LIG2        0.2102
@<TRIPOS>BOND
     1    22     7    1
     2    26    11    1
     3    21     7    1
     4    28    12    1
     5     7    11    1
     6     7     4    1
     7    30    12    1
     8    27    11    1
     9    11     9    1
    10    12    29    1
    11    12     3    1
    12    42     1    1
    13     4    18    1
    14     4     3    1
    15     4     2    1
    16    31    13    1
    17    20     6    1
    18     3    13    1
    19     3     2    1
    20     1     9    1
    21    19     5    1
    22     9     6    1
    23     9    16    1
    24    13    32    1
    25    13    33    1
    26     6     5    1
    27     6    10    1
    28     2     5    1
    29     2    17    1
    30     5     8    1
    31    40    16    1
    32    16    39    1
    33    16    41    1
    34    24    10    1
    35    36    15    1
    36    10    14    1
    37    10    25    1
    38    35    14    1
    39    37    15    1
    40     8    15    1
    41     8    14    1
    42     8    23    1
    43    15    38    1
    44    14    34    1
@<TRIPOS>MOLECULE
11996452_8_run_1.pdb
 42 44 0 0 0
SMALL
GASTEIGER

@<TRIPOS>ATOM
      1    O       25.6990    0.5020    1.8340 O.3     2  LIG2       -0.3886
      2    C       28.0780    2.3470    5.1660 C.3     2  LIG2       -0.0289
      3    C       29.4510    2.0330    5.7500 C.3     2  LIG2       -0.0284
      4    C       28.6140    0.9080    5.1910 C.3     2  LIG2       -0.0319
      5    C       27.8740    3.0590    3.7980 C.3     2  LIG2       -0.0294
      6    C       27.0220    2.3450    2.6910 C.3     2  LIG2       -0.0090
      7    C       28.8710    0.2170    3.8410 C.3     2  LIG2       -0.0468
      8    C       27.2730    4.4740    3.9640 C.3     2  LIG2       -0.0404
      9    C       26.4630    0.9010    2.9630 C.3     2  LIG2        0.0664
     10    C       25.9840    3.3960    2.2350 C.3     2  LIG2       -0.0471
     11    C       27.5810   -0.1850    3.0960 C.3     2  LIG2       -0.0237
     12    C       30.7590    2.4730    5.0510 C.3     2  LIG2       -0.0593
     13    C       29.5740    2.1130    7.2830 C.3     2  LIG2       -0.0593
     14    C       26.5540    4.7530    2.6420 C.3     2  LIG2       -0.0498
     15    C       28.3120    5.5430    4.3440 C.3     2  LIG2       -0.0621
     16    C       25.4400    0.7950    4.1270 C.3     2  LIG2       -0.0358
     17    H       27.2770    2.5760    5.8690 H       2  LIG2        0.0312
     18    H       28.1970    0.2100    5.9190 H       2  LIG2        0.0309
     19    H       28.8500    3.2000    3.3370 H       2  LIG2        0.0310
     20    H       27.6870    2.2230    1.8320 H       2  LIG2        0.0331
     21    H       29.4610    0.8450    3.1770 H       2  LIG2        0.0269
     22    H       29.4780   -0.6740    4.0090 H       2  LIG2        0.0269
     23    H       26.5070    4.4550    4.7430 H       2  LIG2        0.0301
     24    H       25.8090    3.3540    1.1600 H       2  LIG2        0.0269
     25    H       25.0200    3.2430    2.7180 H       2  LIG2        0.0269
     26    H       27.9040   -0.5090    2.1040 H       2  LIG2        0.0293
     27    H       27.1710   -1.0800    3.5700 H       2  LIG2        0.0293
     28    H       31.5990    1.8660    5.3920 H       2  LIG2        0.0235
     29    H       30.9880    3.5120    5.2870 H       2  LIG2        0.0235
     30    H       30.7420    2.3930    3.9680 H       2  LIG2        0.0235
     31    H       30.3810    1.4750    7.6460 H       2  LIG2        0.0235
     32    H       28.6590    1.7950    7.7850 H       2  LIG2        0.0235
     33    H       29.7820    3.1340    7.6050 H       2  LIG2        0.0235
     34    H       25.7690    5.5010    2.7500 H       2  LIG2        0.0268
     35    H       27.2540    5.1150    1.8870 H       2  LIG2        0.0268
     36    H       29.0990    5.6250    3.5920 H       2  LIG2        0.0233
     37    H       28.7880    5.3050    5.2960 H       2  LIG2        0.0233
     38    H       27.8470    6.5230    4.4460 H       2  LIG2        0.0233
     39    H       25.8810    0.9680    5.1050 H       2  LIG2        0.0257
     40    H       24.9950   -0.2000    4.1760 H       2  LIG2        0.0257
     41    H       24.6150    1.4980    4.0220 H       2  LIG2        0.0257
     42    H       26.2290    0.6430    1.0460 H       2  LIG2        0.2102
@<TRIPOS>BOND
     1    42     1    1
     2    24    10    1
     3    20     6    1
     4     1     9    1
     5    35    14    1
     6    26    11    1
     7    10    14    1
     8    10     6    1
     9    10    25    1
    10    14    34    1
    11    14     8    1
    12     6     9    1
    13     6     5    1
    14     9    11    1
    15     9    16    1
    16    11    27    1
    17    11     7    1
    18    21     7    1
    19    19     5    1
    20    36    15    1
    21     5     8    1
    22     5     2    1
    23     7    22    1
    24     7     4    1
    25     8    15    1
    26     8    23    1
    27    30    12    1
    28    41    16    1
    29    16    40    1
    30    16    39    1
    31    15    38    1
    32    15    37    1
    33    12    29    1
    34    12    28    1
    35    12     3    1
    36     2     4    1
    37     2     3    1
    38     2    17    1
    39     4     3    1
    40     4    18    1
    41     3    13    1
    42    13    33    1
    43    13    31    1
    44    13    32    1
