@<TRIPOS>MOLECULE
5281519_run_8.pdb
 39 39 0 0 0
SMALL
GASTEIGER

@<TRIPOS>ATOM
      1    C       30.3950    0.5800    4.8820 C.3     2  LIG2       -0.0275
      2    C       29.8610    1.7070    5.7930 C.2     2  LIG2       -0.0668
      3    C       29.3980   -0.5530    4.4890 C.3     2  LIG2       -0.0283
      4    C       29.6160    3.0510    5.0710 C.3     2  LIG2       -0.0130
      5    C       28.3460   -0.1450    3.4640 C.2     2  LIG2       -0.0762
      6    C       26.4100    2.4740    2.8780 C.3     2  LIG2       -0.0286
      7    C       26.0660    0.9610    3.0360 C.3     2  LIG2       -0.0308
      8    C       27.2630    3.0240    4.0230 C.2     2  LIG2       -0.0759
      9    C       29.6510    1.5200    7.1280 C.2     2  LIG2       -0.0762
     10    C       28.6100    2.9420    3.9430 C.2     2  LIG2       -0.0810
     11    C       27.0980    0.1880    3.8560 C.2     2  LIG2       -0.0847
     12    C       28.8490   -0.0260    2.0300 C.3     2  LIG2       -0.0438
     13    C       26.4890    3.4040    5.2780 C.3     2  LIG2       -0.0438
     14    C       29.8850    0.1940    7.8500 C.3     2  LIG2       -0.0438
     15    C       29.1770    2.6030    8.0940 C.3     2  LIG2       -0.0438
     16    H       30.8410    1.0170    3.9880 H       2  LIG2        0.0313
     17    H       31.2480    0.1260    5.3880 H       2  LIG2        0.0313
     18    H       29.9500   -1.4010    4.0810 H       2  LIG2        0.0313
     19    H       28.9050   -0.9370    5.3820 H       2  LIG2        0.0313
     20    H       29.2740    3.8330    5.7390 H       2  LIG2        0.0352
     21    H       30.5620    3.4210    4.6730 H       2  LIG2        0.0352
     22    H       26.9660    2.6000    1.9470 H       2  LIG2        0.0313
     23    H       25.5070    3.0730    2.7520 H       2  LIG2        0.0313
     24    H       25.1120    0.8610    3.5560 H       2  LIG2        0.0310
     25    H       25.9170    0.4920    2.0630 H       2  LIG2        0.0310
     26    H       29.0440    2.6120    3.0100 H       2  LIG2        0.0575
     27    H       26.8500    0.0970    4.9040 H       2  LIG2        0.0572
     28    H       29.7340    0.6070    1.9740 H       2  LIG2        0.0274
     29    H       28.1050    0.3930    1.3550 H       2  LIG2        0.0274
     30    H       29.1130   -1.0130    1.6490 H       2  LIG2        0.0274
     31    H       25.9340    4.3270    5.1050 H       2  LIG2        0.0274
     32    H       27.1300    3.5640    6.1420 H       2  LIG2        0.0274
     33    H       25.7780    2.6210    5.5410 H       2  LIG2        0.0274
     34    H       30.6170    0.3220    8.6470 H       2  LIG2        0.0274
     35    H       30.2530   -0.6070    7.2130 H       2  LIG2        0.0274
     36    H       28.9530   -0.1540    8.2950 H       2  LIG2        0.0274
     37    H       29.6470    2.4820    9.0720 H       2  LIG2        0.0274
     38    H       28.1000    2.5260    8.2370 H       2  LIG2        0.0274
     39    H       29.4080    3.6190    7.7800 H       2  LIG2        0.0274
@<TRIPOS>BOND
     1    29    12    1
     2    30    12    1
     3    22     6    1
     4    28    12    1
     5    12     5    1
     6    25     7    1
     7    23     6    1
     8     6     7    1
     9     6     8    1
    10    26    10    1
    11     7    24    1
    12     7    11    1
    13     5    11    2
    14     5     3    1
    15    11    27    1
    16    10     8    2
    17    10     4    1
    18    16     1    1
    19     8    13    1
    20    18     3    1
    21     3     1    1
    22     3    19    1
    23    21     4    1
    24     1    17    1
    25     1     2    1
    26     4    20    1
    27     4     2    1
    28    31    13    1
    29    13    33    1
    30    13    32    1
    31     2     9    2
    32     9    14    1
    33     9    15    1
    34    35    14    1
    35    39    15    1
    36    14    36    1
    37    14    34    1
    38    15    38    1
    39    15    37    1
@<TRIPOS>MOLECULE
5281519_run_18.pdb
 39 39 0 0 0
SMALL
GASTEIGER

@<TRIPOS>ATOM
      1    C       27.6630    3.5480    3.7770 C.3     2  LIG2       -0.0275
      2    C       26.6680    2.4500    3.3440 C.2     2  LIG2       -0.0668
      3    C       28.2170    3.4760    5.2330 C.3     2  LIG2       -0.0283
      4    C       27.2590    1.3930    2.3850 C.3     2  LIG2       -0.0130
      5    C       29.2420    2.3730    5.4690 C.2     2  LIG2       -0.0762
      6    C       29.6460   -0.7950    4.6050 C.3     2  LIG2       -0.0286
      7    C       29.6600   -0.1060    6.0040 C.3     2  LIG2       -0.0308
      8    C       28.4120   -0.4470    3.7700 C.2     2  LIG2       -0.0759
      9    C       25.3700    2.4420    3.7650 C.2     2  LIG2       -0.0762
     10    C       28.4380    0.6480    2.9780 C.2     2  LIG2       -0.0810
     11    C       28.8760    1.2050    6.0400 C.2     2  LIG2       -0.0847
     12    C       30.6320    2.6470    4.9060 C.3     2  LIG2       -0.0438
     13    C       27.1620   -1.2520    4.1000 C.3     2  LIG2       -0.0438
     14    C       24.7780    3.4790    4.7180 C.3     2  LIG2       -0.0438
     15    C       24.3210    1.4210    3.3340 C.3     2  LIG2       -0.0438
     16    H       28.4860    3.5930    3.0630 H       2  LIG2        0.0313
     17    H       27.1670    4.5100    3.6460 H       2  LIG2        0.0313
     18    H       28.6830    4.4270    5.4950 H       2  LIG2        0.0313
     19    H       27.3910    3.3600    5.9360 H       2  LIG2        0.0313
     20    H       26.5300    0.6540    2.0700 H       2  LIG2        0.0352
     21    H       27.5720    1.8830    1.4620 H       2  LIG2        0.0352
     22    H       30.5320   -0.4700    4.0570 H       2  LIG2        0.0313
     23    H       29.7510   -1.8770    4.6970 H       2  LIG2        0.0313
     24    H       29.1980   -0.7690    6.7370 H       2  LIG2        0.0310
     25    H       30.6820    0.0460    6.3530 H       2  LIG2        0.0310
     26    H       29.3780    1.1660    2.8580 H       2  LIG2        0.0575
     27    H       27.8560    1.1000    6.3800 H       2  LIG2        0.0572
     28    H       30.5810    2.9350    3.8550 H       2  LIG2        0.0274
     29    H       31.2940    1.7860    4.9770 H       2  LIG2        0.0274
     30    H       31.0990    3.4630    5.4580 H       2  LIG2        0.0274
     31    H       27.2650   -2.2680    3.7200 H       2  LIG2        0.0274
     32    H       26.2570   -0.8300    3.6690 H       2  LIG2        0.0274
     33    H       27.0140   -1.3030    5.1790 H       2  LIG2        0.0274
     34    H       23.9390    3.9910    4.2460 H       2  LIG2        0.0274
     35    H       25.4750    4.2520    5.0340 H       2  LIG2        0.0274
     36    H       24.4150    2.9880    5.6200 H       2  LIG2        0.0274
     37    H       23.3400    1.8900    3.2380 H       2  LIG2        0.0274
     38    H       24.2370    0.6370    4.0860 H       2  LIG2        0.0274
     39    H       24.5190    0.9520    2.3730 H       2  LIG2        0.0274
@<TRIPOS>BOND
     1    21     4    1
     2    20     4    1
     3    39    15    1
     4     4    10    1
     5     4     2    1
     6    26    10    1
     7    10     8    2
     8    16     1    1
     9    37    15    1
    10    15     9    1
    11    15    38    1
    12     2     9    2
    13     2     1    1
    14    17     1    1
    15    32    13    1
    16    31    13    1
    17     9    14    1
    18     8    13    1
    19     8     6    1
    20     1     3    1
    21    28    12    1
    22    22     6    1
    23    13    33    1
    24    34    14    1
    25     6    23    1
    26     6     7    1
    27    14    35    1
    28    14    36    1
    29    12    29    1
    30    12    30    1
    31    12     5    1
    32     3     5    1
    33     3    18    1
    34     3    19    1
    35     5    11    2
    36     7    11    1
    37     7    25    1
    38     7    24    1
    39    11    27    1
@<TRIPOS>MOLECULE
5281519_run_12.pdb
 39 39 0 0 0
SMALL
GASTEIGER

@<TRIPOS>ATOM
      1    C       27.4110    0.7580    3.1680 C.3     2  LIG2       -0.0275
      2    C       28.1380    2.0070    3.7110 C.2     2  LIG2       -0.0668
      3    C       26.1100    0.3130    3.9050 C.3     2  LIG2       -0.0283
      4    C       27.9750    3.2720    2.8390 C.3     2  LIG2       -0.0130
      5    C       24.8990    1.2010    3.6460 C.2     2  LIG2       -0.0762
      6    C       24.2680    4.4390    3.3960 C.3     2  LIG2       -0.0286
      7    C       23.6130    3.3350    4.2810 C.3     2  LIG2       -0.0308
      8    C       25.7950    4.4730    3.5000 C.2     2  LIG2       -0.0759
      9    C       28.8780    1.9730    4.8560 C.2     2  LIG2       -0.0762
     10    C       26.5290    3.6950    2.6730 C.2     2  LIG2       -0.0810
     11    C       24.5350    2.1440    4.5420 C.2     2  LIG2       -0.0847
     12    C       24.2420    1.0230    2.2830 C.3     2  LIG2       -0.0438
     13    C       26.3430    5.2160    4.7100 C.3     2  LIG2       -0.0438
     14    C       29.0410    0.7290    5.7290 C.3     2  LIG2       -0.0438
     15    C       29.6660    3.1540    5.4200 C.3     2  LIG2       -0.0438
     16    H       27.2150    0.8860    2.1030 H       2  LIG2        0.0313
     17    H       28.1190   -0.0700    3.1930 H       2  LIG2        0.0313
     18    H       25.8490   -0.7030    3.6050 H       2  LIG2        0.0313
     19    H       26.2950    0.2540    4.9780 H       2  LIG2        0.0313
     20    H       28.5230    4.1250    3.2250 H       2  LIG2        0.0352
     21    H       28.4090    3.0860    1.8550 H       2  LIG2        0.0352
     22    H       24.0000    4.2450    2.3570 H       2  LIG2        0.0313
     23    H       23.8490    5.4220    3.6190 H       2  LIG2        0.0313
     24    H       23.3590    3.7550    5.2550 H       2  LIG2        0.0310
     25    H       22.6670    3.0030    3.8520 H       2  LIG2        0.0310
     26    H       26.0190    3.1770    1.8760 H       2  LIG2        0.0575
     27    H       25.0860    2.2080    5.4700 H       2  LIG2        0.0572
     28    H       24.9760    1.0970    1.4800 H       2  LIG2        0.0274
     29    H       23.4680    1.7630    2.0870 H       2  LIG2        0.0274
     30    H       23.7730    0.0400    2.2250 H       2  LIG2        0.0274
     31    H       26.2220    6.2910    4.5700 H       2  LIG2        0.0274
     32    H       27.3990    5.0250    4.8850 H       2  LIG2        0.0274
     33    H       25.8060    4.9250    5.6130 H       2  LIG2        0.0274
     34    H       30.0940    0.4620    5.8140 H       2  LIG2        0.0274
     35    H       28.5240   -0.1530    5.3570 H       2  LIG2        0.0274
     36    H       28.6570    0.9260    6.7290 H       2  LIG2        0.0274
     37    H       30.5940    2.8140    5.8820 H       2  LIG2        0.0274
     38    H       29.0800    3.6540    6.1900 H       2  LIG2        0.0274
     39    H       29.9590    3.8930    4.6780 H       2  LIG2        0.0274
@<TRIPOS>BOND
     1    28    12    1
     2    21     4    1
     3    26    10    1
     4    29    12    1
     5    16     1    1
     6    30    12    1
     7    12     5    1
     8    22     6    1
     9    10     4    1
    10    10     8    2
    11     4    20    1
    12     4     2    1
    13     1    17    1
    14     1     2    1
    15     1     3    1
    16     6     8    1
    17     6    23    1
    18     6     7    1
    19     8    13    1
    20    18     3    1
    21     5     3    1
    22     5    11    2
    23     2     9    2
    24    25     7    1
    25     3    19    1
    26     7    11    1
    27     7    24    1
    28    11    27    1
    29    31    13    1
    30    39    15    1
    31    13    32    1
    32    13    33    1
    33     9    15    1
    34     9    14    1
    35    35    14    1
    36    15    37    1
    37    15    38    1
    38    14    34    1
    39    14    36    1
@<TRIPOS>MOLECULE
5281519_run_18.pdb
 39 39 0 0 0
SMALL
GASTEIGER

@<TRIPOS>ATOM
      1    C       25.8930    2.0040    4.3250 C.3     2  LIG2       -0.0275
      2    C       27.0250    3.0200    4.5910 C.2     2  LIG2       -0.0668
      3    C       26.0520    1.0660    3.0890 C.3     2  LIG2       -0.0283
      4    C       27.9380    2.6620    5.7850 C.3     2  LIG2       -0.0130
      5    C       27.0840   -0.0420    3.2620 C.2     2  LIG2       -0.0762
      6    C       30.1170   -0.3610    4.5460 C.3     2  LIG2       -0.0286
      7    C       29.5590   -0.7240    3.1360 C.3     2  LIG2       -0.0308
      8    C       29.7960    1.0730    4.9730 C.2     2  LIG2       -0.0759
      9    C       27.1770    4.1480    3.8390 C.2     2  LIG2       -0.0762
     10    C       28.6350    1.3270    5.6180 C.2     2  LIG2       -0.0810
     11    C       28.3250    0.0880    2.7460 C.2     2  LIG2       -0.0847
     12    C       26.6460   -1.2040    4.1450 C.3     2  LIG2       -0.0438
     13    C       30.7270    2.1380    4.4090 C.3     2  LIG2       -0.0438
     14    C       26.2830    4.5080    2.6530 C.3     2  LIG2       -0.0438
     15    C       28.2380    5.2190    4.0810 C.3     2  LIG2       -0.0438
     16    H       25.7150    1.4150    5.2250 H       2  LIG2        0.0313
     17    H       24.9670    2.5680    4.2100 H       2  LIG2        0.0313
     18    H       25.0940    0.5980    2.8590 H       2  LIG2        0.0313
     19    H       26.2980    1.6570    2.2060 H       2  LIG2        0.0313
     20    H       28.7030    3.4090    5.9710 H       2  LIG2        0.0352
     21    H       27.3420    2.6430    6.6980 H       2  LIG2        0.0352
     22    H       29.6710   -1.0410    5.2730 H       2  LIG2        0.0313
     23    H       31.1900   -0.5450    4.6050 H       2  LIG2        0.0313
     24    H       30.3210   -0.5200    2.3830 H       2  LIG2        0.0310
     25    H       29.3560   -1.7930    3.0610 H       2  LIG2        0.0310
     26    H       28.0330    0.4860    5.9290 H       2  LIG2        0.0575
     27    H       28.5440    0.9680    2.1570 H       2  LIG2        0.0572
     28    H       26.2700   -0.8500    5.1050 H       2  LIG2        0.0274
     29    H       27.4530   -1.9060    4.3510 H       2  LIG2        0.0274
     30    H       25.8490   -1.7620    3.6530 H       2  LIG2        0.0274
     31    H       31.6930    2.0900    4.9130 H       2  LIG2        0.0274
     32    H       30.3430    3.1480    4.5310 H       2  LIG2        0.0274
     33    H       30.8880    1.9780    3.3420 H       2  LIG2        0.0274
     34    H       25.8010    5.4720    2.8220 H       2  LIG2        0.0274
     35    H       25.4880    3.7930    2.4540 H       2  LIG2        0.0274
     36    H       26.8830    4.5810    1.7460 H       2  LIG2        0.0274
     37    H       27.8440    6.2120    3.8560 H       2  LIG2        0.0274
     38    H       29.0910    5.0490    3.4250 H       2  LIG2        0.0274
     39    H       28.5990    5.2700    5.1050 H       2  LIG2        0.0274
@<TRIPOS>BOND
     1    36    14    1
     2    27    11    1
     3    19     3    1
     4    24     7    1
     5    35    14    1
     6    14    34    1
     7    14     9    1
     8    11     7    1
     9    11     5    2
    10    18     3    1
    11    25     7    1
    12     3     5    1
    13     3     1    1
    14     7     6    1
    15     5    12    1
    16    33    13    1
    17    38    15    1
    18    30    12    1
    19     9    15    1
    20     9     2    2
    21    37    15    1
    22    15    39    1
    23    12    29    1
    24    12    28    1
    25    17     1    1
    26     1     2    1
    27     1    16    1
    28    13    32    1
    29    13    31    1
    30    13     8    1
    31     6    23    1
    32     6     8    1
    33     6    22    1
    34     2     4    1
    35     8    10    2
    36    10     4    1
    37    10    26    1
    38     4    20    1
    39     4    21    1
@<TRIPOS>MOLECULE
5281519_run_6.pdb
 39 39 0 0 0
SMALL
GASTEIGER

@<TRIPOS>ATOM
      1    C       23.8740    2.3010    4.6030 C.3     2  LIG2       -0.0275
      2    C       24.3860    3.7540    4.7210 C.2     2  LIG2       -0.0668
      3    C       24.2030    1.5340    3.2850 C.3     2  LIG2       -0.0283
      4    C       25.5900    3.9320    5.6730 C.3     2  LIG2       -0.0130
      5    C       25.6570    1.0940    3.1530 C.2     2  LIG2       -0.0762
      6    C       28.6480    2.3660    3.7710 C.3     2  LIG2       -0.0286
      7    C       28.0520    1.7340    2.4760 C.3     2  LIG2       -0.0308
      8    C       27.7640    3.4600    4.3740 C.2     2  LIG2       -0.0759
      9    C       23.7960    4.7860    4.0520 C.2     2  LIG2       -0.0762
     10    C       26.7990    3.1180    5.2570 C.2     2  LIG2       -0.0810
     11    C       26.5280    1.8120    2.4110 C.2     2  LIG2       -0.0847
     12    C       26.0510   -0.1070    4.0050 C.3     2  LIG2       -0.0438
     13    C       27.9020    4.8310    3.7260 C.3     2  LIG2       -0.0438
     14    C       22.6090    4.6190    3.1040 C.3     2  LIG2       -0.0438
     15    C       24.2150    6.2500    4.1650 C.3     2  LIG2       -0.0438
     16    H       24.2090    1.7270    5.4670 H       2  LIG2        0.0313
     17    H       22.7910    2.3250    4.7240 H       2  LIG2        0.0313
     18    H       23.5770    0.6440    3.2140 H       2  LIG2        0.0313
     19    H       23.9300    2.1450    2.4240 H       2  LIG2        0.0313
     20    H       25.9070    4.9650    5.7640 H       2  LIG2        0.0352
     21    H       25.2940    3.6430    6.6820 H       2  LIG2        0.0352
     22    H       28.7650    1.5750    4.5130 H       2  LIG2        0.0313
     23    H       29.6570    2.7440    3.5980 H       2  LIG2        0.0313
     24    H       28.4310    2.2710    1.6050 H       2  LIG2        0.0310
     25    H       28.3910    0.7050    2.3530 H       2  LIG2        0.0310
     26    H       26.7730    2.0980    5.6110 H       2  LIG2        0.0575
     27    H       26.1520    2.6660    1.8670 H       2  LIG2        0.0572
     28    H       25.7660    0.0390    5.0470 H       2  LIG2        0.0274
     29    H       27.1210   -0.3060    3.9840 H       2  LIG2        0.0274
     30    H       25.5470   -1.0020    3.6370 H       2  LIG2        0.0274
     31    H       28.8490    5.2850    4.0200 H       2  LIG2        0.0274
     32    H       27.1080    5.5180    4.0070 H       2  LIG2        0.0274
     33    H       27.8870    4.7440    2.6390 H       2  LIG2        0.0274
     34    H       21.7650    5.2180    3.4470 H       2  LIG2        0.0274
     35    H       22.2480    3.5980    3.0090 H       2  LIG2        0.0274
     36    H       22.8830    4.9560    2.1050 H       2  LIG2        0.0274
     37    H       23.3460    6.9060    4.1090 H       2  LIG2        0.0274
     38    H       24.8770    6.5100    3.3400 H       2  LIG2        0.0274
     39    H       24.7160    6.5020    5.0970 H       2  LIG2        0.0274
@<TRIPOS>BOND
     1    24     7    1
     2    27    11    1
     3    36    14    1
     4    25     7    1
     5    11     7    1
     6    11     5    2
     7    19     3    1
     8     7     6    1
     9    33    13    1
    10    35    14    1
    11    14    34    1
    12    14     9    1
    13     5     3    1
    14     5    12    1
    15    18     3    1
    16     3     1    1
    17    38    15    1
    18    23     6    1
    19    30    12    1
    20    13    32    1
    21    13    31    1
    22    13     8    1
    23     6     8    1
    24     6    22    1
    25    29    12    1
    26    12    28    1
    27     9    15    1
    28     9     2    2
    29    37    15    1
    30    15    39    1
    31     8    10    2
    32     1     2    1
    33     1    17    1
    34     1    16    1
    35     2     4    1
    36    10    26    1
    37    10     4    1
    38     4    20    1
    39     4    21    1
@<TRIPOS>MOLECULE
5281519_run_6.pdb
 39 39 0 0 0
SMALL
GASTEIGER

@<TRIPOS>ATOM
      1    C       27.5530    3.2400    3.9440 C.3     2  LIG2       -0.0275
      2    C       26.1400    2.6180    4.0010 C.2     2  LIG2       -0.0668
      3    C       27.8290    4.2820    2.8170 C.3     2  LIG2       -0.0283
      4    C       25.2560    3.1430    5.1530 C.3     2  LIG2       -0.0130
      5    C       27.1750    5.6420    3.0370 C.2     2  LIG2       -0.0762
      6    C       24.2660    6.7970    4.1090 C.3     2  LIG2       -0.0286
      7    C       25.0610    7.0840    2.7980 C.3     2  LIG2       -0.0308
      8    C       24.0790    5.3040    4.3900 C.2     2  LIG2       -0.0759
      9    C       25.7330    1.6660    3.1120 C.2     2  LIG2       -0.0762
     10    C       25.0270    4.6400    5.0890 C.2     2  LIG2       -0.0810
     11    C       26.0200    5.9590    2.4140 C.2     2  LIG2       -0.0847
     12    C       27.8490    6.5250    4.0810 C.3     2  LIG2       -0.0438
     13    C       22.9340    4.6440    3.6340 C.3     2  LIG2       -0.0438
     14    C       26.5980    1.1440    1.9660 C.3     2  LIG2       -0.0438
     15    C       24.3730    0.9710    3.1440 C.3     2  LIG2       -0.0438
     16    H       27.8020    3.6630    4.9170 H       2  LIG2        0.0313
     17    H       28.2670    2.4230    3.8370 H       2  LIG2        0.0313
     18    H       28.9030    4.4400    2.7190 H       2  LIG2        0.0313
     19    H       27.5110    3.8790    1.8550 H       2  LIG2        0.0313
     20    H       24.2830    2.6660    5.1900 H       2  LIG2        0.0352
     21    H       25.7240    2.8930    6.1060 H       2  LIG2        0.0352
     22    H       24.8160    7.2350    4.9430 H       2  LIG2        0.0313
     23    H       23.3020    7.3080    4.1050 H       2  LIG2        0.0313
     24    H       24.3610    7.1980    1.9690 H       2  LIG2        0.0310
     25    H       25.5910    8.0350    2.8650 H       2  LIG2        0.0310
     26    H       25.8210    5.2160    5.5420 H       2  LIG2        0.0575
     27    H       25.6070    5.2480    1.7110 H       2  LIG2        0.0572
     28    H       27.9890    5.9870    5.0200 H       2  LIG2        0.0274
     29    H       27.2800    7.4260    4.3030 H       2  LIG2        0.0274
     30    H       28.8290    6.8400    3.7210 H       2  LIG2        0.0274
     31    H       21.9810    4.9530    4.0630 H       2  LIG2        0.0274
     32    H       22.9730    3.5580    3.6670 H       2  LIG2        0.0274
     33    H       22.9490    4.9380    2.5840 H       2  LIG2        0.0274
     34    H       26.7370    0.0660    2.0590 H       2  LIG2        0.0274
     35    H       27.5910    1.5830    1.9140 H       2  LIG2        0.0274
     36    H       26.1090    1.3440    1.0130 H       2  LIG2        0.0274
     37    H       24.4650   -0.0720    2.8360 H       2  LIG2        0.0274
     38    H       23.6930    1.4600    2.4480 H       2  LIG2        0.0274
     39    H       23.9030    0.9500    4.1240 H       2  LIG2        0.0274
@<TRIPOS>BOND
     1    36    14    1
     2    27    11    1
     3    19     3    1
     4    35    14    1
     5    14    34    1
     6    14     9    1
     7    24     7    1
     8    11     7    1
     9    11     5    2
    10    38    15    1
    11    33    13    1
    12    18     3    1
    13     7    25    1
    14     7     6    1
    15     3     5    1
    16     3     1    1
    17    37    15    1
    18     5    12    1
    19     9    15    1
    20     9     2    2
    21    15    39    1
    22    13    32    1
    23    13    31    1
    24    13     8    1
    25    30    12    1
    26    17     1    1
    27     1     2    1
    28     1    16    1
    29     2     4    1
    30    12    29    1
    31    12    28    1
    32    23     6    1
    33     6     8    1
    34     6    22    1
    35     8    10    2
    36    10     4    1
    37    10    26    1
    38     4    20    1
    39     4    21    1
@<TRIPOS>MOLECULE
5281519_run_2.pdb
 39 39 0 0 0
SMALL
GASTEIGER

@<TRIPOS>ATOM
      1    C       25.5360    4.3220    3.2660 C.3     2  LIG2       -0.0275
      2    C       25.2310    2.8260    3.0340 C.2     2  LIG2       -0.0668
      3    C       26.1280    4.7240    4.6520 C.3     2  LIG2       -0.0283
      4    C       26.2290    2.1070    2.0990 C.3     2  LIG2       -0.0130
      5    C       27.5880    4.3350    4.8550 C.2     2  LIG2       -0.0762
      6    C       29.5250    1.7340    4.2000 C.3     2  LIG2       -0.0286
      7    C       29.2590    2.5020    5.5310 C.3     2  LIG2       -0.0308
      8    C       28.2440    1.2980    3.4850 C.2     2  LIG2       -0.0759
      9    C       24.1510    2.2120    3.5980 C.2     2  LIG2       -0.0762
     10    C       27.6540    2.1460    2.6120 C.2     2  LIG2       -0.0810
     11    C       27.9130    3.2250    5.5530 C.2     2  LIG2       -0.0847
     12    C       28.6000    5.2050    4.1200 C.3     2  LIG2       -0.0438
     13    C       27.6130    0.0180    4.0150 C.3     2  LIG2       -0.0438
     14    C       23.1620    2.9130    4.5280 C.3     2  LIG2       -0.0438
     15    C       23.7600    0.7540    3.3690 C.3     2  LIG2       -0.0438
     16    H       26.1750    4.6910    2.4620 H       2  LIG2        0.0313
     17    H       24.6070    4.8730    3.1170 H       2  LIG2        0.0313
     18    H       26.0480    5.8030    4.7850 H       2  LIG2        0.0313
     19    H       25.5230    4.2930    5.4500 H       2  LIG2        0.0313
     20    H       25.9720    1.0670    1.9270 H       2  LIG2        0.0352
     21    H       26.1900    2.5690    1.1120 H       2  LIG2        0.0352
     22    H       30.0820    2.3930    3.5320 H       2  LIG2        0.0313
     23    H       30.1800    0.8770    4.3640 H       2  LIG2        0.0313
     24    H       29.2490    1.7940    6.3610 H       2  LIG2        0.0310
     25    H       30.0720    3.1950    5.7500 H       2  LIG2        0.0310
     26    H       28.1820    3.0500    2.3470 H       2  LIG2        0.0575
     27    H       27.1150    2.6590    6.0120 H       2  LIG2        0.0572
     28    H       28.3490    5.2930    3.0620 H       2  LIG2        0.0274
     29    H       29.6160    4.8180    4.1830 H       2  LIG2        0.0274
     30    H       28.6080    6.2070    4.5510 H       2  LIG2        0.0274
     31    H       28.2050   -0.8430    3.7060 H       2  LIG2        0.0274
     32    H       26.5980   -0.1360    3.6570 H       2  LIG2        0.0274
     33    H       27.5740    0.0340    5.1050 H       2  LIG2        0.0274
     34    H       22.1540    2.8630    4.1150 H       2  LIG2        0.0274
     35    H       23.3750    3.9650    4.7030 H       2  LIG2        0.0274
     36    H       23.1570    2.4220    5.5010 H       2  LIG2        0.0274
     37    H       22.6750    0.6430    3.3480 H       2  LIG2        0.0274
     38    H       24.1370    0.1380    4.1840 H       2  LIG2        0.0274
     39    H       24.1180    0.3360    2.4310 H       2  LIG2        0.0274
@<TRIPOS>BOND
     1    21     4    1
     2    20     4    1
     3     4    10    1
     4     4     2    1
     5    26    10    1
     6    39    15    1
     7    16     1    1
     8    10     8    2
     9     2     1    1
    10     2     9    2
    11    28    12    1
    12    17     1    1
    13     1     3    1
    14    37    15    1
    15    15     9    1
    16    15    38    1
    17     8    13    1
    18     8     6    1
    19    22     6    1
    20     9    14    1
    21    32    13    1
    22    31    13    1
    23    13    33    1
    24    34    14    1
    25    12    29    1
    26    12    30    1
    27    12     5    1
    28     6    23    1
    29     6     7    1
    30    14    35    1
    31    14    36    1
    32     3    18    1
    33     3     5    1
    34     3    19    1
    35     5    11    2
    36     7    11    1
    37     7    25    1
    38     7    24    1
    39    11    27    1
@<TRIPOS>MOLECULE
5281519_run_13.pdb
 39 39 0 0 0
SMALL
GASTEIGER

@<TRIPOS>ATOM
      1    C       28.3010    3.5120    5.3860 C.3     2  LIG2       -0.0275
      2    C       27.2440    3.6480    4.2680 C.2     2  LIG2       -0.0668
      3    C       28.3500    2.1600    6.1610 C.3     2  LIG2       -0.0283
      4    C       27.8170    3.5840    2.8350 C.3     2  LIG2       -0.0130
      5    C       28.9490    1.0000    5.3730 C.2     2  LIG2       -0.0762
      6    C       28.7980   -0.1780    2.2850 C.3     2  LIG2       -0.0286
      7    C       28.5580   -0.8750    3.6590 C.3     2  LIG2       -0.0308
      8    C       28.0020    1.1180    2.1150 C.2     2  LIG2       -0.0759
      9    C       25.9200    3.8330    4.5430 C.2     2  LIG2       -0.0762
     10    C       28.5370    2.2830    2.5430 C.2     2  LIG2       -0.0810
     11    C       28.1500    0.0950    4.7660 C.2     2  LIG2       -0.0847
     12    C       30.4670    1.0270    5.2310 C.3     2  LIG2       -0.0438
     13    C       26.5520    0.9320    1.6870 C.3     2  LIG2       -0.0438
     14    C       25.3430    3.8930    5.9560 C.3     2  LIG2       -0.0438
     15    C       24.8320    4.0300    3.4890 C.3     2  LIG2       -0.0438
     16    H       29.2860    3.7530    4.9850 H       2  LIG2        0.0313
     17    H       28.1220    4.3120    6.1050 H       2  LIG2        0.0313
     18    H       28.9350    2.2810    7.0730 H       2  LIG2        0.0313
     19    H       27.3490    1.8900    6.4980 H       2  LIG2        0.0313
     20    H       27.0590    3.7160    2.0710 H       2  LIG2        0.0352
     21    H       28.5060    4.4160    2.6880 H       2  LIG2        0.0352
     22    H       29.8600    0.0610    2.2070 H       2  LIG2        0.0313
     23    H       28.5990   -0.8590    1.4570 H       2  LIG2        0.0313
     24    H       27.7460   -1.5970    3.5600 H       2  LIG2        0.0310
     25    H       29.4300   -1.4570    3.9590 H       2  LIG2        0.0310
     26    H       29.5670    2.2800    2.8690 H       2  LIG2        0.0575
     27    H       27.0820    0.1820    4.9070 H       2  LIG2        0.0572
     28    H       30.8100    1.9900    4.8550 H       2  LIG2        0.0274
     29    H       30.8410    0.2600    4.5550 H       2  LIG2        0.0274
     30    H       30.9310    0.8570    6.2030 H       2  LIG2        0.0274
     31    H       26.5110    0.6430    0.6370 H       2  LIG2        0.0274
     32    H       25.9550    1.8340    1.8030 H       2  LIG2        0.0274
     33    H       26.0770    0.1490    2.2780 H       2  LIG2        0.0274
     34    H       24.8410    4.8470    6.1190 H       2  LIG2        0.0274
     35    H       26.0800    3.7890    6.7490 H       2  LIG2        0.0274
     36    H       24.6140    3.0950    6.0920 H       2  LIG2        0.0274
     37    H       24.0750    4.7320    3.8410 H       2  LIG2        0.0274
     38    H       24.3330    3.0810    3.2930 H       2  LIG2        0.0274
     39    H       25.1900    4.4300    2.5440 H       2  LIG2        0.0274
@<TRIPOS>BOND
     1    31    13    1
     2    23     6    1
     3    13    32    1
     4    13     8    1
     5    13    33    1
     6    20     4    1
     7     8     6    1
     8     8    10    2
     9    22     6    1
    10     6     7    1
    11    10     4    1
    12    10    26    1
    13    39    15    1
    14    21     4    1
    15     4     2    1
    16    38    15    1
    17    15    37    1
    18    15     9    1
    19    24     7    1
    20     7    25    1
    21     7    11    1
    22     2     9    2
    23     2     1    1
    24     9    14    1
    25    29    12    1
    26    11    27    1
    27    11     5    2
    28    28    12    1
    29    16     1    1
    30    12     5    1
    31    12    30    1
    32     5     3    1
    33     1    17    1
    34     1     3    1
    35    14    36    1
    36    14    34    1
    37    14    35    1
    38     3    19    1
    39     3    18    1
@<TRIPOS>MOLECULE
5281519_run_23.pdb
 39 39 0 0 0
SMALL
GASTEIGER

@<TRIPOS>ATOM
      1    C       25.6680    1.5030    3.5150 C.3     2  LIG2       -0.0275
      2    C       27.1370    1.9570    3.3720 C.2     2  LIG2       -0.0668
      3    C       24.8330    2.1410    4.6670 C.3     2  LIG2       -0.0283
      4    C       27.4020    2.9010    2.1780 C.3     2  LIG2       -0.0130
      5    C       24.4230    3.5900    4.4270 C.2     2  LIG2       -0.0762
      6    C       25.8060    6.3380    3.2090 C.3     2  LIG2       -0.0286
      7    C       25.0840    6.0700    4.5650 C.3     2  LIG2       -0.0308
      8    C       26.9110    5.3250    2.9010 C.2     2  LIG2       -0.0759
      9    C       28.1120    1.5290    4.2250 C.2     2  LIG2       -0.0762
     10    C       26.5970    4.1830    2.2470 C.2     2  LIG2       -0.0810
     11    C       25.1180    4.6030    4.9890 C.2     2  LIG2       -0.0847
     12    C       23.2850    3.7860    3.4320 C.3     2  LIG2       -0.0438
     13    C       28.2450    5.5960    3.5840 C.3     2  LIG2       -0.0438
     14    C       27.8600    0.6000    5.4110 C.3     2  LIG2       -0.0438
     15    C       29.5910    1.8930    4.1090 C.3     2  LIG2       -0.0438
     16    H       25.1540    1.6320    2.5610 H       2  LIG2        0.0313
     17    H       25.6710    0.4220    3.6510 H       2  LIG2        0.0313
     18    H       23.9240    1.5590    4.8260 H       2  LIG2        0.0313
     19    H       25.3840    2.0710    5.6050 H       2  LIG2        0.0313
     20    H       28.4470    3.1770    2.0810 H       2  LIG2        0.0352
     21    H       27.1660    2.3790    1.2500 H       2  LIG2        0.0352
     22    H       25.0630    6.2860    2.4120 H       2  LIG2        0.0313
     23    H       26.1990    7.3550    3.1650 H       2  LIG2        0.0313
     24    H       25.5780    6.6370    5.3550 H       2  LIG2        0.0310
     25    H       24.0580    6.4400    4.5390 H       2  LIG2        0.0310
     26    H       25.5990    4.0860    1.8460 H       2  LIG2        0.0575
     27    H       25.9290    4.3560    5.6590 H       2  LIG2        0.0572
     28    H       23.4850    3.2630    2.4970 H       2  LIG2        0.0274
     29    H       23.1130    4.8340    3.1900 H       2  LIG2        0.0274
     30    H       22.3580    3.3930    3.8500 H       2  LIG2        0.0274
     31    H       28.7390    6.4420    3.1060 H       2  LIG2        0.0274
     32    H       28.9260    4.7500    3.5400 H       2  LIG2        0.0274
     33    H       28.0930    5.8380    4.6360 H       2  LIG2        0.0274
     34    H       28.4560   -0.3080    5.3140 H       2  LIG2        0.0274
     35    H       26.8260    0.2830    5.5230 H       2  LIG2        0.0274
     36    H       28.1440    1.0970    6.3380 H       2  LIG2        0.0274
     37    H       30.2210    1.0540    4.4090 H       2  LIG2        0.0274
     38    H       29.8190    2.7270    4.7720 H       2  LIG2        0.0274
     39    H       29.9110    2.1580    3.1040 H       2  LIG2        0.0274
@<TRIPOS>BOND
     1    21     4    1
     2    26    10    1
     3    20     4    1
     4     4    10    1
     5     4     2    1
     6    10     8    2
     7    22     6    1
     8    28    12    1
     9    16     1    1
    10     8     6    1
    11     8    13    1
    12    39    15    1
    13    31    13    1
    14    23     6    1
    15    29    12    1
    16     6     7    1
    17     2     1    1
    18     2     9    2
    19    12    30    1
    20    12     5    1
    21     1    17    1
    22     1     3    1
    23    32    13    1
    24    13    33    1
    25    15     9    1
    26    15    37    1
    27    15    38    1
    28     9    14    1
    29     5     3    1
    30     5    11    2
    31    25     7    1
    32     7    11    1
    33     7    24    1
    34     3    18    1
    35     3    19    1
    36    11    27    1
    37    34    14    1
    38    14    35    1
    39    14    36    1
@<TRIPOS>MOLECULE
5281519_run_5.pdb
 39 39 0 0 0
SMALL
GASTEIGER

@<TRIPOS>ATOM
      1    C       29.5910   -0.0840    5.8380 C.3     2  LIG2       -0.0275
      2    C       28.8930   -0.6560    4.5840 C.2     2  LIG2       -0.0668
      3    C       30.4170    1.2270    5.6590 C.3     2  LIG2       -0.0283
      4    C       27.3620   -0.4530    4.5560 C.3     2  LIG2       -0.0130
      5    C       29.5780    2.4870    5.4800 C.2     2  LIG2       -0.0762
      6    C       26.8420    3.3740    3.8440 C.3     2  LIG2       -0.0286
      7    C       28.2710    3.9970    3.8620 C.3     2  LIG2       -0.0308
      8    C       26.8410    1.8690    3.5680 C.2     2  LIG2       -0.0759
      9    C       29.5850   -1.3050    3.6040 C.2     2  LIG2       -0.0762
     10    C       26.9570    1.0070    4.6030 C.2     2  LIG2       -0.0810
     11    C       29.3610    3.0000    4.2490 C.2     2  LIG2       -0.0847
     12    C       28.9250    3.0180    6.7510 C.3     2  LIG2       -0.0438
     13    C       26.9510    1.4820    2.0990 C.3     2  LIG2       -0.0438
     14    C       31.0990   -1.5060    3.6200 C.3     2  LIG2       -0.0438
     15    C       28.9530   -1.9420    2.3680 C.3     2  LIG2       -0.0438
     16    H       28.8580    0.0390    6.6360 H       2  LIG2        0.0313
     17    H       30.2540   -0.8570    6.2250 H       2  LIG2        0.0313
     18    H       31.0610    1.3750    6.5270 H       2  LIG2        0.0313
     19    H       31.0980    1.1220    4.8140 H       2  LIG2        0.0313
     20    H       26.8930   -0.8930    3.6820 H       2  LIG2        0.0352
     21    H       26.9160   -0.9760    5.4030 H       2  LIG2        0.0352
     22    H       26.3850    3.5420    4.8200 H       2  LIG2        0.0313
     23    H       26.1940    3.8920    3.1350 H       2  LIG2        0.0313
     24    H       28.5190    4.3620    2.8640 H       2  LIG2        0.0310
     25    H       28.3050    4.8750    4.5080 H       2  LIG2        0.0310
     26    H       26.9110    1.4080    5.6050 H       2  LIG2        0.0575
     27    H       29.8490    2.5300    3.4070 H       2  LIG2        0.0572
     28    H       28.3710    2.2330    7.2660 H       2  LIG2        0.0274
     29    H       28.2310    3.8350    6.5590 H       2  LIG2        0.0274
     30    H       29.6910    3.3940    7.4290 H       2  LIG2        0.0274
     31    H       26.0070    1.6840    1.5910 H       2  LIG2        0.0274
     32    H       27.1840    0.4300    1.9520 H       2  LIG2        0.0274
     33    H       27.7340    2.0610    1.6090 H       2  LIG2        0.0274
     34    H       31.3400   -2.5690    3.5900 H       2  LIG2        0.0274
     35    H       31.5990   -1.0980    4.4960 H       2  LIG2        0.0274
     36    H       31.5450   -1.0300    2.7470 H       2  LIG2        0.0274
     37    H       29.4790   -2.8570    2.0930 H       2  LIG2        0.0274
     38    H       29.0220   -1.2570    1.5240 H       2  LIG2        0.0274
     39    H       27.9100   -2.2260    2.4930 H       2  LIG2        0.0274
@<TRIPOS>BOND
     1    38    15    1
     2    31    13    1
     3    33    13    1
     4    32    13    1
     5    37    15    1
     6    13     8    1
     7    15    39    1
     8    15     9    1
     9    36    14    1
    10    24     7    1
    11    23     6    1
    12    27    11    1
    13     8     6    1
    14     8    10    2
    15    34    14    1
    16     9    14    1
    17     9     2    2
    18    14    35    1
    19    20     4    1
    20     6     7    1
    21     6    22    1
    22     7    11    1
    23     7    25    1
    24    11     5    2
    25     4     2    1
    26     4    10    1
    27     4    21    1
    28     2     1    1
    29    10    26    1
    30    19     3    1
    31     5     3    1
    32     5    12    1
    33     3     1    1
    34     3    18    1
    35     1    17    1
    36     1    16    1
    37    29    12    1
    38    12    28    1
    39    12    30    1
