# Top-energy pose of compounds ranked according to the score (given in kcal/mol).
@<TRIPOS>MOLECULE
6lx5_ligand-1_run_11.pdb
 31 32 0 0 0
SMALL
GASTEIGER

@<TRIPOS>ATOM
      1   Cl       19.6360   17.1530  -19.9550 Cl      2  LIG2       -0.1002
      2   Cl       20.7700   15.3120  -17.7290 Cl      2  LIG2       -0.1002
      3    O       22.4780    9.1290  -19.6790 O.3     2  LIG2       -0.4749
      4    O       22.7930    6.1390  -21.5750 O.co2   2  LIG2       -0.2419
      5    O       21.7600    6.6100  -19.7000 O.co2   2  LIG2       -0.2419
      6    C       21.4860   15.0490  -20.3940 C.3     2  LIG2        0.0197
      7    C       20.8810   16.0120  -19.3700 C.3     2  LIG2        0.1259
      8    C       22.2830   16.2690  -19.9140 C.3     2  LIG2       -0.0099
      9    C       21.7860   13.5520  -20.2170 C.ar    2  LIG2       -0.0411
     10    C       23.2000   12.9670  -20.2900 C.ar    2  LIG2       -0.0548
     11    C       20.6000   12.6270  -19.9620 C.ar    2  LIG2       -0.0548
     12    C       23.4070   11.4560  -20.1060 C.ar    2  LIG2       -0.0196
     13    C       20.8120   11.1260  -19.7820 C.ar    2  LIG2       -0.0196
     14    C       22.2160   10.5210  -19.8450 C.ar    2  LIG2        0.1221
     15    C       23.2260    8.3260  -20.6020 C.3     2  LIG2        0.2047
     16    C       24.6790    8.1490  -20.0930 C.3     2  LIG2       -0.0144
     17    C       23.2130    8.7490  -22.0970 C.3     2  LIG2       -0.0144
     18    C       22.5470    6.9450  -20.6310 C.2     2  LIG2        0.3982
     19    H       21.0660   15.2370  -21.3820 H       2  LIG2        0.0379
     20    H       22.0320   16.9640  -20.7150 H       2  LIG2        0.0301
     21    H       22.8640   15.7950  -19.1230 H       2  LIG2        0.0301
     22    H       24.0440   13.6160  -20.4700 H       2  LIG2        0.0622
     23    H       19.6010   13.0330  -19.9070 H       2  LIG2        0.0622
     24    H       24.4010   11.0370  -20.1600 H       2  LIG2        0.0654
     25    H       19.9650   10.4770  -19.6090 H       2  LIG2        0.0654
     26    H       25.2400    7.5370  -20.8000 H       2  LIG2        0.0273
     27    H       25.1530    9.1250  -20.0010 H       2  LIG2        0.0273
     28    H       24.6660    7.6590  -19.1200 H       2  LIG2        0.0273
     29    H       23.8190    8.0530  -22.6770 H       2  LIG2        0.0273
     30    H       22.1890    8.7360  -22.4700 H       2  LIG2        0.0273
     31    H       23.6220    9.7550  -22.1940 H       2  LIG2        0.0273
@<TRIPOS>BOND
     1    29    17    1
     2    30    17    1
     3    31    17    1
     4    17    15    1
     5     4    18   ar
     6    19     6    1
     7    26    16    1
     8    20     8    1
     9    18    15    1
    10    18     5   ar
    11    15    16    1
    12    15     3    1
    13    22    10    1
    14     6     9    1
    15     6     8    1
    16     6     7    1
    17    10     9   ar
    18    10    12   ar
    19     9    11   ar
    20    24    12    1
    21    12    14   ar
    22    16    27    1
    23    16    28    1
    24    11    23    1
    25    11    13   ar
    26     1     7    1
    27     8     7    1
    28     8    21    1
    29    14    13   ar
    30    14     3    1
    31    13    25    1
    32     7     2    1
