@<TRIPOS>MOLECULE
6lx5_ligand-1_run_11.pdb
 31 32 0 0 0
SMALL
GASTEIGER

@<TRIPOS>ATOM
      1   Cl       19.6360   17.1530  -19.9550 Cl      2  LIG2       -0.1002
      2   Cl       20.7700   15.3120  -17.7290 Cl      2  LIG2       -0.1002
      3    O       22.4780    9.1290  -19.6790 O.3     2  LIG2       -0.4749
      4    O       22.7930    6.1390  -21.5750 O.co2   2  LIG2       -0.2419
      5    O       21.7600    6.6100  -19.7000 O.co2   2  LIG2       -0.2419
      6    C       21.4860   15.0490  -20.3940 C.3     2  LIG2        0.0197
      7    C       20.8810   16.0120  -19.3700 C.3     2  LIG2        0.1259
      8    C       22.2830   16.2690  -19.9140 C.3     2  LIG2       -0.0099
      9    C       21.7860   13.5520  -20.2170 C.ar    2  LIG2       -0.0411
     10    C       23.2000   12.9670  -20.2900 C.ar    2  LIG2       -0.0548
     11    C       20.6000   12.6270  -19.9620 C.ar    2  LIG2       -0.0548
     12    C       23.4070   11.4560  -20.1060 C.ar    2  LIG2       -0.0196
     13    C       20.8120   11.1260  -19.7820 C.ar    2  LIG2       -0.0196
     14    C       22.2160   10.5210  -19.8450 C.ar    2  LIG2        0.1221
     15    C       23.2260    8.3260  -20.6020 C.3     2  LIG2        0.2047
     16    C       24.6790    8.1490  -20.0930 C.3     2  LIG2       -0.0144
     17    C       23.2130    8.7490  -22.0970 C.3     2  LIG2       -0.0144
     18    C       22.5470    6.9450  -20.6310 C.2     2  LIG2        0.3982
     19    H       21.0660   15.2370  -21.3820 H       2  LIG2        0.0379
     20    H       22.0320   16.9640  -20.7150 H       2  LIG2        0.0301
     21    H       22.8640   15.7950  -19.1230 H       2  LIG2        0.0301
     22    H       24.0440   13.6160  -20.4700 H       2  LIG2        0.0622
     23    H       19.6010   13.0330  -19.9070 H       2  LIG2        0.0622
     24    H       24.4010   11.0370  -20.1600 H       2  LIG2        0.0654
     25    H       19.9650   10.4770  -19.6090 H       2  LIG2        0.0654
     26    H       25.2400    7.5370  -20.8000 H       2  LIG2        0.0273
     27    H       25.1530    9.1250  -20.0010 H       2  LIG2        0.0273
     28    H       24.6660    7.6590  -19.1200 H       2  LIG2        0.0273
     29    H       23.8190    8.0530  -22.6770 H       2  LIG2        0.0273
     30    H       22.1890    8.7360  -22.4700 H       2  LIG2        0.0273
     31    H       23.6220    9.7550  -22.1940 H       2  LIG2        0.0273
@<TRIPOS>BOND
     1    29    17    1
     2    30    17    1
     3    31    17    1
     4    17    15    1
     5     4    18   ar
     6    19     6    1
     7    26    16    1
     8    20     8    1
     9    18    15    1
    10    18     5   ar
    11    15    16    1
    12    15     3    1
    13    22    10    1
    14     6     9    1
    15     6     8    1
    16     6     7    1
    17    10     9   ar
    18    10    12   ar
    19     9    11   ar
    20    24    12    1
    21    12    14   ar
    22    16    27    1
    23    16    28    1
    24    11    23    1
    25    11    13   ar
    26     1     7    1
    27     8     7    1
    28     8    21    1
    29    14    13   ar
    30    14     3    1
    31    13    25    1
    32     7     2    1
@<TRIPOS>MOLECULE
6lx5_ligand-1_run_11.pdb
 31 32 0 0 0
SMALL
GASTEIGER

@<TRIPOS>ATOM
      1   Cl       18.8350   17.0690  -21.9490 Cl      2  LIG2       -0.1002
      2   Cl       18.2650   14.0450  -22.3540 Cl      2  LIG2       -0.1002
      3    O       22.9040    9.7820  -19.9520 O.3     2  LIG2       -0.4749
      4    O       21.9940    6.8600  -19.7000 O.co2   2  LIG2       -0.2419
      5    O       24.1430    6.8620  -20.1310 O.co2   2  LIG2       -0.2419
      6    C       19.8730   15.0010  -20.3090 C.3     2  LIG2        0.0197
      7    C       18.7880   15.4000  -21.3110 C.3     2  LIG2        0.1259
      8    C       18.4460   15.2960  -19.8280 C.3     2  LIG2       -0.0099
      9    C       20.6720   13.6880  -20.2560 C.ar    2  LIG2       -0.0411
     10    C       21.8040   13.3560  -21.2330 C.ar    2  LIG2       -0.0548
     11    C       20.2940   12.6850  -19.1700 C.ar    2  LIG2       -0.0548
     12    C       22.5460   12.0180  -21.1090 C.ar    2  LIG2       -0.0196
     13    C       21.0340   11.3540  -19.0540 C.ar    2  LIG2       -0.0196
     14    C       22.1730   11.0050  -20.0150 C.ar    2  LIG2        0.1221
     15    C       22.8610    8.7560  -20.9530 C.3     2  LIG2        0.2047
     16    C       24.0550    8.9150  -21.9280 C.3     2  LIG2       -0.0144
     17    C       21.5310    8.5720  -21.7360 C.3     2  LIG2       -0.0144
     18    C       23.0100    7.4160  -20.2110 C.2     2  LIG2        0.3982
     19    H       20.5250   15.8490  -20.1010 H       2  LIG2        0.0379
     20    H       18.5720   16.3420  -19.5490 H       2  LIG2        0.0301
     21    H       18.0560   14.2780  -19.8120 H       2  LIG2        0.0301
     22    H       22.0760   14.0630  -22.0040 H       2  LIG2        0.0622
     23    H       19.4980   12.9130  -18.4770 H       2  LIG2        0.0622
     24    H       23.3430   11.7760  -21.7970 H       2  LIG2        0.0654
     25    H       20.7560   10.6460  -18.2870 H       2  LIG2        0.0654
     26    H       24.0140    8.1310  -22.6840 H       2  LIG2        0.0273
     27    H       24.0020    9.8900  -22.4110 H       2  LIG2        0.0273
     28    H       24.9890    8.8350  -21.3730 H       2  LIG2        0.0273
     29    H       21.6430    7.7630  -22.4580 H       2  LIG2        0.0273
     30    H       20.7290    8.3280  -21.0380 H       2  LIG2        0.0273
     31    H       21.2870    9.4950  -22.2610 H       2  LIG2        0.0273
@<TRIPOS>BOND
     1    26    16    1
     2    29    17    1
     3    27    16    1
     4     2     7    1
     5    31    17    1
     6    22    10    1
     7     1     7    1
     8    16    28    1
     9    16    15    1
    10    24    12    1
    11    17    30    1
    12    17    15    1
    13     7     6    1
    14     7     8    1
    15    10    12   ar
    16    10     9   ar
    17    12    14   ar
    18    15    18    1
    19    15     3    1
    20     6     9    1
    21     6    19    1
    22     6     8    1
    23     9    11   ar
    24    18     5   ar
    25    18     4   ar
    26    14     3    1
    27    14    13   ar
    28     8    21    1
    29     8    20    1
    30    11    13   ar
    31    11    23    1
    32    13    25    1
@<TRIPOS>MOLECULE
6lx5_ligand-1_run_4.pdb
 31 32 0 0 0
SMALL
GASTEIGER

@<TRIPOS>ATOM
      1   Cl       10.8430    5.6380  -13.9180 Cl      2  LIG2       -0.1002
      2   Cl       13.0090    7.4320  -12.6090 Cl      2  LIG2       -0.1002
      3    O       10.7460   12.2210   -8.4100 O.3     2  LIG2       -0.4749
      4    O       12.0100   11.9220   -5.9500 O.co2   2  LIG2       -0.2419
      5    O       10.1060   11.1100   -5.2280 O.co2   2  LIG2       -0.2419
      6    C       10.5280    7.0000  -11.4520 C.3     2  LIG2        0.0197
      7    C       11.5200    6.4520  -12.4790 C.3     2  LIG2        0.1259
      8    C       11.3010    5.7070  -11.1660 C.3     2  LIG2       -0.0099
      9    C       10.5780    8.3530  -10.7210 C.ar    2  LIG2       -0.0411
     10    C       10.4940    9.7000  -11.4450 C.ar    2  LIG2       -0.0548
     11    C       10.7230    8.3200   -9.2020 C.ar    2  LIG2       -0.0548
     12    C       10.5560   11.0020  -10.6340 C.ar    2  LIG2       -0.0196
     13    C       10.7880    9.6190   -8.4020 C.ar    2  LIG2       -0.0196
     14    C       10.6980   10.9750   -9.1040 C.ar    2  LIG2        0.1221
     15    C       10.0160   12.5130   -7.2110 C.3     2  LIG2        0.2047
     16    C        8.5830   11.9320   -7.3080 C.3     2  LIG2       -0.0144
     17    C        9.9800   13.9910   -6.7330 C.3     2  LIG2       -0.0144
     18    C       10.7550   11.8000   -6.0650 C.2     2  LIG2        0.3982
     19    H        9.5060    6.7710  -11.7540 H       2  LIG2        0.0379
     20    H       10.5570    4.9840  -11.5000 H       2  LIG2        0.0301
     21    H       12.1280    6.1240  -10.5910 H       2  LIG2        0.0301
     22    H       10.3910    9.7290  -12.5190 H       2  LIG2        0.0622
     23    H       10.7820    7.3730   -8.6860 H       2  LIG2        0.0622
     24    H       10.5000   11.9560  -11.1380 H       2  LIG2        0.0654
     25    H       10.8980    9.5860   -7.3280 H       2  LIG2        0.0654
     26    H        8.0350   12.1580   -6.3920 H       2  LIG2        0.0273
     27    H        8.0670   12.3770   -8.1590 H       2  LIG2        0.0273
     28    H        8.6360   10.8520   -7.4410 H       2  LIG2        0.0273
     29    H        9.3950   14.0630   -5.8160 H       2  LIG2        0.0273
     30    H       10.9970   14.3360   -6.5420 H       2  LIG2        0.0273
     31    H        9.5250   14.6120   -7.5040 H       2  LIG2        0.0273
@<TRIPOS>BOND
     1     1     7    1
     2     2     7    1
     3    22    10    1
     4     7     6    1
     5     7     8    1
     6    19     6    1
     7    20     8    1
     8     6     8    1
     9     6     9    1
    10    10     9   ar
    11    10    12   ar
    12     8    21    1
    13    24    12    1
    14     9    11   ar
    15    12    14   ar
    16    11    23    1
    17    11    13   ar
    18    14     3    1
    19    14    13   ar
    20     3    15    1
    21    13    25    1
    22    27    16    1
    23    31    17    1
    24    28    16    1
    25    16    15    1
    26    16    26    1
    27    15    17    1
    28    15    18    1
    29    17    30    1
    30    17    29    1
    31    18     4   ar
    32    18     5   ar
@<TRIPOS>MOLECULE
6lx5_ligand-1_run_11.pdb
 31 32 0 0 0
SMALL
GASTEIGER

@<TRIPOS>ATOM
      1   Cl       17.6330   13.8690  -18.7810 Cl      2  LIG2       -0.1002
      2   Cl       19.4190   11.6290  -17.5890 Cl      2  LIG2       -0.1002
      3    O       23.0800    8.1740  -22.0090 O.3     2  LIG2       -0.4749
      4    O       22.0670    6.8590  -19.6980 O.co2   2  LIG2       -0.2419
      5    O       23.9200    7.5960  -18.7880 O.co2   2  LIG2       -0.2419
      6    C       20.0770   12.9850  -19.9140 C.3     2  LIG2        0.0197
      7    C       19.2170   13.0530  -18.6510 C.3     2  LIG2        0.1259
      8    C       20.4220   13.9770  -18.7960 C.3     2  LIG2       -0.0099
      9    C       20.8830   11.7870  -20.4440 C.ar    2  LIG2       -0.0411
     10    C       22.3980   11.8290  -20.6670 C.ar    2  LIG2       -0.0548
     11    C       20.1100   10.5090  -20.7570 C.ar    2  LIG2       -0.0548
     12    C       23.1210   10.5860  -21.2040 C.ar    2  LIG2       -0.0196
     13    C       20.8340    9.2770  -21.2930 C.ar    2  LIG2       -0.0196
     14    C       22.3480    9.2950  -21.5170 C.ar    2  LIG2        0.1221
     15    C       23.9170    7.3330  -21.2040 C.3     2  LIG2        0.2047
     16    C       25.3220    7.9690  -21.0540 C.3     2  LIG2       -0.0144
     17    C       24.0300    5.8360  -21.6060 C.3     2  LIG2       -0.0144
     18    C       23.2610    7.2650  -19.8140 C.2     2  LIG2        0.3982
     19    H       19.5810   13.5000  -20.7370 H       2  LIG2        0.0379
     20    H       19.9160   14.8590  -19.1870 H       2  LIG2        0.0301
     21    H       21.1610   13.3820  -18.2600 H       2  LIG2        0.0301
     22    H       22.9510   12.7310  -20.4470 H       2  LIG2        0.0622
     23    H       19.0420   10.4720  -20.6000 H       2  LIG2        0.0622
     24    H       24.1890   10.6100  -21.3660 H       2  LIG2        0.0654
     25    H       20.2780    8.3790  -21.5190 H       2  LIG2        0.0654
     26    H       25.9510    7.3230  -20.4410 H       2  LIG2        0.0273
     27    H       25.7740    8.0880  -22.0390 H       2  LIG2        0.0273
     28    H       25.2300    8.9440  -20.5770 H       2  LIG2        0.0273
     29    H       24.6930    5.3210  -20.9110 H       2  LIG2        0.0273
     30    H       23.0420    5.3750  -21.5740 H       2  LIG2        0.0273
     31    H       24.4330    5.7600  -22.6160 H       2  LIG2        0.0273
@<TRIPOS>BOND
     1    31    17    1
     2    27    16    1
     3     3    14    1
     4     3    15    1
     5    17    30    1
     6    17    15    1
     7    17    29    1
     8    25    13    1
     9    14    13   ar
    10    14    12   ar
    11    24    12    1
    12    13    11   ar
    13    15    16    1
    14    15    18    1
    15    12    10   ar
    16    16    28    1
    17    16    26    1
    18    11    23    1
    19    11     9   ar
    20    19     6    1
    21    10    22    1
    22    10     9   ar
    23     9     6    1
    24     6     8    1
    25     6     7    1
    26    18     4   ar
    27    18     5   ar
    28    20     8    1
    29     8     7    1
    30     8    21    1
    31     1     7    1
    32     7     2    1
@<TRIPOS>MOLECULE
6lx5_ligand-1_run_1.pdb
 31 32 0 0 0
SMALL
GASTEIGER

@<TRIPOS>ATOM
      1   Cl       11.4580    5.6300  -14.4290 Cl      2  LIG2       -0.1002
      2   Cl       12.9610    7.7070  -12.6820 Cl      2  LIG2       -0.1002
      3    O        9.1500   11.1210   -8.3390 O.3     2  LIG2       -0.4749
      4    O       11.9940   11.6390   -8.9700 O.co2   2  LIG2       -0.2419
      5    O       11.7590   12.6100   -7.0190 O.co2   2  LIG2       -0.2419
      6    C       10.6630    6.4180  -11.8230 C.3     2  LIG2        0.0197
      7    C       11.8130    6.3460  -12.8310 C.3     2  LIG2        0.1259
      8    C       11.7630    5.3600  -11.6670 C.3     2  LIG2       -0.0099
      9    C       10.2920    7.5890  -10.8980 C.ar    2  LIG2       -0.0411
     10    C       10.4320    7.5280   -9.3730 C.ar    2  LIG2       -0.0548
     11    C        9.7590    8.8570  -11.5560 C.ar    2  LIG2       -0.0548
     12    C       10.0330    8.7450   -8.5260 C.ar    2  LIG2       -0.0196
     13    C        9.3610   10.0620  -10.7070 C.ar    2  LIG2       -0.0196
     14    C        9.4980   10.0260   -9.1840 C.ar    2  LIG2        0.1221
     15    C        9.7630   12.4170   -8.3920 C.3     2  LIG2        0.2047
     16    C        9.1760   13.3270   -7.2840 C.3     2  LIG2       -0.0144
     17    C        9.7740   13.1520   -9.7610 C.3     2  LIG2       -0.0144
     18    C       11.2600   12.2030   -8.1060 C.2     2  LIG2        0.3982
     19    H        9.7640    5.9700  -12.2450 H       2  LIG2        0.0379
     20    H       11.2710    4.5260  -12.1690 H       2  LIG2        0.0301
     21    H       12.4100    5.8870  -10.9670 H       2  LIG2        0.0301
     22    H       10.8100    6.6330   -8.9020 H       2  LIG2        0.0622
     23    H        9.6590    8.9070  -12.6310 H       2  LIG2        0.0622
     24    H       10.1260    8.7070   -7.4500 H       2  LIG2        0.0654
     25    H        8.9760   10.9540  -11.1820 H       2  LIG2        0.0654
     26    H        9.6480   14.3090   -7.3320 H       2  LIG2        0.0273
     27    H        8.1010   13.4330   -7.4320 H       2  LIG2        0.0273
     28    H        9.3650   12.8800   -6.3090 H       2  LIG2        0.0273
     29    H       10.2690   14.1170   -9.6520 H       2  LIG2        0.0273
     30    H       10.3120   12.5490  -10.4930 H       2  LIG2        0.0273
     31    H        8.7490   13.3050  -10.1000 H       2  LIG2        0.0273
@<TRIPOS>BOND
     1     1     7    1
     2     7     2    1
     3     7     6    1
     4     7     8    1
     5    23    11    1
     6    19     6    1
     7    20     8    1
     8     6     8    1
     9     6     9    1
    10     8    21    1
    11    11     9   ar
    12    11    13   ar
    13    25    13    1
    14     9    10   ar
    15    13    14   ar
    16    30    17    1
    17    31    17    1
    18    17    29    1
    19    17    15    1
    20    10    22    1
    21    10    12   ar
    22    14    12   ar
    23    14     3    1
    24     4    18   ar
    25    12    24    1
    26    15     3    1
    27    15    18    1
    28    15    16    1
    29    18     5   ar
    30    27    16    1
    31    26    16    1
    32    16    28    1
@<TRIPOS>MOLECULE
6lx5_ligand-1_run_5.pdb
 31 32 0 0 0
SMALL
GASTEIGER

@<TRIPOS>ATOM
      1   Cl       22.6890   18.7380  -20.0900 Cl      2  LIG2       -0.1002
      2   Cl       24.6070   16.4000  -20.7860 Cl      2  LIG2       -0.1002
      3    O       22.0590   10.1760  -20.0630 O.3     2  LIG2       -0.4749
      4    O       22.0100    7.2280  -19.7000 O.co2   2  LIG2       -0.2419
      5    O       24.0820    7.6170  -20.3000 O.co2   2  LIG2       -0.2419
      6    C       21.8490   16.1580  -20.9140 C.3     2  LIG2        0.0197
      7    C       22.9970   17.1690  -20.8890 C.3     2  LIG2        0.1259
      8    C       22.2110   16.9480  -22.1780 C.3     2  LIG2       -0.0099
      9    C       21.9200   14.6440  -20.6520 C.ar    2  LIG2       -0.0411
     10    C       22.4360   14.0440  -19.3400 C.ar    2  LIG2       -0.0548
     11    C       21.4510   13.7200  -21.7720 C.ar    2  LIG2       -0.0548
     12    C       22.4750   12.5190  -19.1680 C.ar    2  LIG2       -0.0196
     13    C       21.4950   12.2040  -21.5940 C.ar    2  LIG2       -0.0196
     14    C       22.0000   11.5830  -20.2900 C.ar    2  LIG2        0.1221
     15    C       22.4070    9.2050  -21.0600 C.3     2  LIG2        0.2047
     16    C       23.5920    9.7220  -21.9130 C.3     2  LIG2       -0.0144
     17    C       21.2660    8.6690  -21.9690 C.3     2  LIG2       -0.0144
     18    C       22.8620    7.9450  -20.3020 C.2     2  LIG2        0.3982
     19    H       20.9620   16.5820  -20.4440 H       2  LIG2        0.0379
     20    H       21.4930   17.7620  -22.0830 H       2  LIG2        0.0301
     21    H       22.8660   16.2190  -22.6550 H       2  LIG2        0.0301
     22    H       22.7690   14.6930  -18.5440 H       2  LIG2        0.0622
     23    H       21.0850   14.1370  -22.6980 H       2  LIG2        0.0622
     24    H       22.8400   12.0890  -18.2460 H       2  LIG2        0.0654
     25    H       21.1680   11.5570  -22.3950 H       2  LIG2        0.0654
     26    H       23.8500    8.9780  -22.6670 H       2  LIG2        0.0273
     27    H       23.3090   10.6530  -22.4030 H       2  LIG2        0.0273
     28    H       24.4530    9.8990  -21.2690 H       2  LIG2        0.0273
     29    H       21.6730    7.9440  -22.6740 H       2  LIG2        0.0273
     30    H       20.5050    8.1890  -21.3530 H       2  LIG2        0.0273
     31    H       20.8190    9.4970  -22.5190 H       2  LIG2        0.0273
@<TRIPOS>BOND
     1    23    11    1
     2    29    17    1
     3    26    16    1
     4    21     8    1
     5    31    17    1
     6    27    16    1
     7    25    13    1
     8     8    20    1
     9     8     6    1
    10     8     7    1
    11    17    30    1
    12    17    15    1
    13    16    28    1
    14    16    15    1
    15    11    13   ar
    16    11     9   ar
    17    13    14   ar
    18    15    18    1
    19    15     3    1
    20     6     7    1
    21     6     9    1
    22     6    19    1
    23     7     2    1
    24     7     1    1
    25     9    10   ar
    26    18     5   ar
    27    18     4   ar
    28    14     3    1
    29    14    12   ar
    30    10    12   ar
    31    10    22    1
    32    12    24    1
@<TRIPOS>MOLECULE
6lx5_ligand-1_run_22.pdb
 31 32 0 0 0
SMALL
GASTEIGER

@<TRIPOS>ATOM
      1   Cl        7.2600   13.3600  -17.8150 Cl      2  LIG2       -0.1002
      2   Cl        6.0430   11.7990  -15.4260 Cl      2  LIG2       -0.1002
      3    O        9.5650   12.0400   -9.6510 O.3     2  LIG2       -0.4749
      4    O       11.7600   12.6100   -6.9080 O.co2   2  LIG2       -0.2419
      5    O       11.0640   10.7920   -7.9150 O.co2   2  LIG2       -0.2419
      6    C        7.7430   13.9610  -15.0860 C.3     2  LIG2        0.0197
      7    C        6.8150   13.2690  -16.0870 C.3     2  LIG2        0.1259
      8    C        6.4020   14.6010  -15.4660 C.3     2  LIG2       -0.0099
      9    C        8.2250   13.4310  -13.7250 C.ar    2  LIG2       -0.0411
     10    C        8.9350   12.0850  -13.5530 C.ar    2  LIG2       -0.0548
     11    C        7.9670   14.3100  -12.5040 C.ar    2  LIG2       -0.0548
     12    C        9.3780   11.6340  -12.1540 C.ar    2  LIG2       -0.0196
     13    C        8.4080   13.8540  -11.1150 C.ar    2  LIG2       -0.0196
     14    C        9.1240   12.5160  -10.9210 C.ar    2  LIG2        0.1221
     15    C       10.0130   12.8800   -8.5780 C.3     2  LIG2        0.2047
     16    C        8.8180   13.2570   -7.6660 C.3     2  LIG2       -0.0144
     17    C       10.8410   14.1400   -8.9500 C.3     2  LIG2       -0.0144
     18    C       11.0100   12.0440   -7.7560 C.2     2  LIG2        0.3982
     19    H        8.5610   14.4570  -15.6100 H       2  LIG2        0.0379
     20    H        6.7480   15.2720  -16.2520 H       2  LIG2        0.0301
     21    H        5.7940   14.2250  -14.6440 H       2  LIG2        0.0301
     22    H        9.1210   11.4590  -14.4140 H       2  LIG2        0.0622
     23    H        7.4690   15.2610  -12.6190 H       2  LIG2        0.0622
     24    H        9.8760   10.6840  -12.0250 H       2  LIG2        0.0654
     25    H        8.2150   14.4780  -10.2550 H       2  LIG2        0.0654
     26    H        9.1670   13.8950   -6.8540 H       2  LIG2        0.0273
     27    H        8.0690   13.7900   -8.2510 H       2  LIG2        0.0273
     28    H        8.3770   12.3510   -7.2520 H       2  LIG2        0.0273
     29    H       11.1110   14.6800   -8.0420 H       2  LIG2        0.0273
     30    H       11.7470   13.8380   -9.4760 H       2  LIG2        0.0273
     31    H       10.2480   14.7890   -9.5940 H       2  LIG2        0.0273
@<TRIPOS>BOND
     1     1     7    1
     2    20     8    1
     3     7     8    1
     4     7     2    1
     5     7     6    1
     6    19     6    1
     7     8     6    1
     8     8    21    1
     9     6     9    1
    10    22    10    1
    11     9    10   ar
    12     9    11   ar
    13    10    12   ar
    14    23    11    1
    15    11    13   ar
    16    12    24    1
    17    12    14   ar
    18    13    14   ar
    19    13    25    1
    20    14     3    1
    21     3    15    1
    22    31    17    1
    23    30    17    1
    24    17    15    1
    25    17    29    1
    26    15    18    1
    27    15    16    1
    28    27    16    1
    29     5    18   ar
    30    18     4   ar
    31    16    28    1
    32    16    26    1
@<TRIPOS>MOLECULE
6lx5_ligand-1_run_2.pdb
 31 32 0 0 0
SMALL
GASTEIGER

@<TRIPOS>ATOM
      1   Cl       11.7610    8.0780  -14.9470 Cl      2  LIG2       -0.1002
      2   Cl       13.1640    7.3600  -12.2740 Cl      2  LIG2       -0.1002
      3    O       10.8450   10.6620   -6.8730 O.3     2  LIG2       -0.4749
      4    O       10.0640   13.8210   -7.8160 O.co2   2  LIG2       -0.2419
      5    O       12.0090   13.2440   -6.9870 O.co2   2  LIG2       -0.2419
      6    C       10.5330    8.2210  -12.3950 C.3     2  LIG2        0.0197
      7    C       11.6710    7.6200  -13.2220 C.3     2  LIG2        0.1259
      8    C       10.4660    6.7590  -12.8550 C.3     2  LIG2       -0.0099
      9    C       10.6040    8.7970  -10.9710 C.ar    2  LIG2       -0.0411
     10    C       10.3860    7.9510   -9.7130 C.ar    2  LIG2       -0.0548
     11    C       10.9030   10.2870  -10.8350 C.ar    2  LIG2       -0.0548
     12    C       10.4710    8.6120   -8.3300 C.ar    2  LIG2       -0.0196
     13    C       10.9840   10.9390   -9.4570 C.ar    2  LIG2       -0.0196
     14    C       10.7760   10.1110   -8.1870 C.ar    2  LIG2        0.1221
     15    C       10.1190   11.8190   -6.4360 C.3     2  LIG2        0.2047
     16    C       10.2650   11.9900   -4.9030 C.3     2  LIG2       -0.0144
     17    C        8.6300   11.9370   -6.8650 C.3     2  LIG2       -0.0144
     18    C       10.7720   13.0300   -7.1270 C.2     2  LIG2        0.3982
     19    H        9.8980    8.8450  -13.0240 H       2  LIG2        0.0379
     20    H        9.8770    6.8920  -13.7630 H       2  LIG2        0.0301
     21    H       10.8630    6.2790  -11.9610 H       2  LIG2        0.0301
     22    H       10.1740    6.8960   -9.8030 H       2  LIG2        0.0622
     23    H       11.0600   10.8890  -11.7180 H       2  LIG2        0.0622
     24    H       10.3150    8.0220   -7.4380 H       2  LIG2        0.0654
     25    H       11.1890   11.9960   -9.3700 H       2  LIG2        0.0654
     26    H        9.7110   12.8710   -4.5800 H       2  LIG2        0.0273
     27    H        9.8700   11.1070   -4.4000 H       2  LIG2        0.0273
     28    H       11.3180   12.1100   -4.6500 H       2  LIG2        0.0273
     29    H        8.2090   12.8590   -6.4650 H       2  LIG2        0.0273
     30    H        8.5650   11.9500   -7.9530 H       2  LIG2        0.0273
     31    H        8.0720   11.0850   -6.4780 H       2  LIG2        0.0273
@<TRIPOS>BOND
     1     1     7    1
     2    20     8    1
     3     7     8    1
     4     7     6    1
     5     7     2    1
     6    19     6    1
     7     8     6    1
     8     8    21    1
     9     6     9    1
    10    23    11    1
    11     9    11   ar
    12     9    10   ar
    13    11    13   ar
    14    22    10    1
    15    10    12   ar
    16    13    25    1
    17    13    14   ar
    18    12    14   ar
    19    12    24    1
    20    14     3    1
    21    30    17    1
    22     4    18   ar
    23    18     5   ar
    24    18    15    1
    25     3    15    1
    26    17    31    1
    27    17    29    1
    28    17    15    1
    29    15    16    1
    30    16    28    1
    31    16    26    1
    32    16    27    1
@<TRIPOS>MOLECULE
6lx5_ligand-1_run_4.pdb
 31 32 0 0 0
SMALL
GASTEIGER

@<TRIPOS>ATOM
      1   Cl       10.1820    6.6580  -13.0510 Cl      2  LIG2       -0.1002
      2   Cl       12.0120    9.0020  -12.1660 Cl      2  LIG2       -0.1002
      3    O        9.4670   13.0960   -7.5230 O.3     2  LIG2       -0.4749
      4    O       12.0100   12.8680   -6.4570 O.co2   2  LIG2       -0.2419
      5    O       11.8180   14.9620   -5.8350 O.co2   2  LIG2       -0.2419
      6    C       10.1220    7.8680  -10.4870 C.3     2  LIG2        0.0197
      7    C       10.9390    7.6320  -11.7590 C.3     2  LIG2        0.1259
      8    C       11.2720    6.8530  -10.4890 C.3     2  LIG2       -0.0099
      9    C        9.9700    9.1750   -9.6920 C.ar    2  LIG2       -0.0411
     10    C       10.2500    9.2790   -8.1890 C.ar    2  LIG2       -0.0548
     11    C        9.5140   10.4110  -10.4620 C.ar    2  LIG2       -0.0548
     12    C       10.0680   10.6260   -7.4750 C.ar    2  LIG2       -0.0196
     13    C        9.3320   11.7470   -9.7440 C.ar    2  LIG2       -0.0196
     14    C        9.6130   11.8750   -8.2460 C.ar    2  LIG2        0.1221
     15    C       10.3580   14.2150   -7.6290 C.3     2  LIG2        0.2047
     16    C        9.6040   15.5270   -7.2960 C.3     2  LIG2       -0.0144
     17    C       11.1700   14.3650   -8.9460 C.3     2  LIG2       -0.0144
     18    C       11.4560   14.0010   -6.5720 C.2     2  LIG2        0.3982
     19    H        9.1640    7.3520  -10.5540 H       2  LIG2        0.0379
     20    H       10.7020    5.9460  -10.6890 H       2  LIG2        0.0301
     21    H       12.0650    7.4910  -10.0990 H       2  LIG2        0.0301
     22    H       10.5740    8.4080   -7.6400 H       2  LIG2        0.0622
     23    H        9.3160   10.3450  -11.5210 H       2  LIG2        0.0622
     24    H       10.2610   10.7060   -6.4150 H       2  LIG2        0.0654
     25    H        9.0010   12.6150  -10.2960 H       2  LIG2        0.0654
     26    H       10.2880   16.3710   -7.3790 H       2  LIG2        0.0273
     27    H        8.7780   15.6580   -7.9950 H       2  LIG2        0.0273
     28    H        9.2140   15.4740   -6.2800 H       2  LIG2        0.0273
     29    H       11.8000   15.2530   -8.8850 H       2  LIG2        0.0273
     30    H       11.7960   13.4840   -9.0890 H       2  LIG2        0.0273
     31    H       10.4840   14.4640   -9.7870 H       2  LIG2        0.0273
@<TRIPOS>BOND
     1     1     7    1
     2     2     7    1
     3     7     8    1
     4     7     6    1
     5    23    11    1
     6    20     8    1
     7    19     6    1
     8     8     6    1
     9     8    21    1
    10     6     9    1
    11    11    13   ar
    12    11     9   ar
    13    25    13    1
    14    31    17    1
    15    13    14   ar
    16     9    10   ar
    17    30    17    1
    18    17    29    1
    19    17    15    1
    20    14     3    1
    21    14    12   ar
    22    10    22    1
    23    10    12   ar
    24    27    16    1
    25    15     3    1
    26    15    16    1
    27    15    18    1
    28    12    24    1
    29    26    16    1
    30    16    28    1
    31    18     4   ar
    32    18     5   ar
@<TRIPOS>MOLECULE
6lx5_ligand-1_run_3.pdb
 31 32 0 0 0
SMALL
GASTEIGER

@<TRIPOS>ATOM
      1   Cl        7.3490   12.4340  -16.5970 Cl      2  LIG2       -0.1002
      2   Cl        6.5090   11.0450  -13.9530 Cl      2  LIG2       -0.1002
      3    O       10.4470   12.1970   -8.6690 O.3     2  LIG2       -0.4749
      4    O       10.4340   11.1100   -5.2750 O.co2   2  LIG2       -0.2419
      5    O       11.7930   12.3650   -6.4500 O.co2   2  LIG2       -0.2419
      6    C        7.8930   13.4450  -14.0050 C.3     2  LIG2        0.0197
      7    C        7.0210   12.5090  -14.8420 C.3     2  LIG2        0.1259
      8    C        6.4540   13.8400  -14.3580 C.3     2  LIG2       -0.0099
      9    C        8.5230   13.1690  -12.6290 C.ar    2  LIG2       -0.0411
     10    C        8.3770   14.1180  -11.4350 C.ar    2  LIG2       -0.0548
     11    C        9.3310   11.8840  -12.4770 C.ar    2  LIG2       -0.0548
     12    C        9.0450   13.7630  -10.0980 C.ar    2  LIG2       -0.0196
     13    C        9.9950   11.5390  -11.1460 C.ar    2  LIG2       -0.0196
     14    C        9.8560   12.4680   -9.9380 C.ar    2  LIG2        0.1221
     15    C        9.7440   11.6510   -7.5440 C.3     2  LIG2        0.2047
     16    C        9.3930   10.1650   -7.8090 C.3     2  LIG2       -0.0144
     17    C        8.5020   12.4270   -7.0270 C.3     2  LIG2       -0.0144
     18    C       10.7120   11.7190   -6.3500 C.2     2  LIG2        0.3982
     19    H        8.5990   13.9770  -14.6440 H       2  LIG2        0.0379
     20    H        6.6530   14.4440  -15.2430 H       2  LIG2        0.0301
     21    H        5.9540   13.4950  -13.4530 H       2  LIG2        0.0301
     22    H        7.8060   15.0280  -11.5360 H       2  LIG2        0.0622
     23    H        9.4370   11.2100  -13.3150 H       2  LIG2        0.0622
     24    H        8.9480   14.4290   -9.2530 H       2  LIG2        0.0654
     25    H       10.5720   10.6310  -11.0490 H       2  LIG2        0.0654
     26    H        8.8590    9.7580   -6.9490 H       2  LIG2        0.0273
     27    H        8.7630   10.0930   -8.6950 H       2  LIG2        0.0273
     28    H       10.3090    9.5980   -7.9690 H       2  LIG2        0.0273
     29    H        8.0710   11.9000   -6.1760 H       2  LIG2        0.0273
     30    H        8.8010   13.4300   -6.7200 H       2  LIG2        0.0273
     31    H        7.7600   12.4980   -7.8230 H       2  LIG2        0.0273
@<TRIPOS>BOND
     1     1     7    1
     2    20     8    1
     3     7     8    1
     4     7     6    1
     5     7     2    1
     6    19     6    1
     7     8     6    1
     8     8    21    1
     9     6     9    1
    10    23    11    1
    11     9    11   ar
    12     9    10   ar
    13    11    13   ar
    14    22    10    1
    15    10    12   ar
    16    13    25    1
    17    13    14   ar
    18    12    14   ar
    19    12    24    1
    20    14     3    1
    21    27    16    1
    22     3    15    1
    23    28    16    1
    24    31    17    1
    25    16    15    1
    26    16    26    1
    27    15    17    1
    28    15    18    1
    29    17    30    1
    30    17    29    1
    31     5    18   ar
    32    18     4   ar
