# Top-energy pose of compounds ranked according to the score (given in kcal/mol).
@<TRIPOS>MOLECULE
4k1l_ligand_run_16.pdb
 41 43 0 0 0
SMALL
GASTEIGER

@<TRIPOS>ATOM
      1    C      -63.5280  -80.1720  -11.6960 C.3     2  LIG2       -0.0496
      2    C      -64.0570  -79.0450  -12.5970 C.3     2  LIG2       -0.0138
      3    C      -63.0270  -78.6860  -13.7020 C.3     2  LIG2        0.1271
      4    C      -61.7160  -78.1620  -13.0410 C.3     2  LIG2        0.1364
      5    C      -61.1200  -79.2660  -12.1050 C.3     2  LIG2       -0.0252
      6    C      -62.1370  -79.8320  -11.0900 C.3     2  LIG2       -0.0510
      7    O      -62.8240  -79.8120  -14.4890 O.2     2  LIG2       -0.4594
      8    C      -61.7840  -79.9750  -15.3800 C.2     2  LIG2        0.3010
      9    N      -60.6800  -79.1180  -15.4110 N.2     2  LIG2       -0.0802
     10    S      -60.6110  -77.8210  -14.4730 S.O2    2  LIG2        0.0800
     11    O      -61.2190  -76.6230  -15.1300 O.2     2  LIG2       -0.1510
     12    O      -59.2400  -77.6030  -13.9100 O.2     2  LIG2       -0.1510
     13    N      -61.7410  -81.0320  -16.1820 N.pl3   2  LIG2       -0.2952
     14    C      -62.8280  -82.0260  -16.2100 C.3     2  LIG2        0.0247
     15    C      -62.5590  -83.0900  -15.0950 C.3     2  LIG2       -0.0344
     16    C      -63.5410  -84.2940  -15.1610 C.3     2  LIG2       -0.0514
     17    C      -63.5610  -84.9180  -16.5690 C.3     2  LIG2       -0.0529
     18    C      -63.9050  -83.8600  -17.6540 C.3     2  LIG2       -0.0514
     19    C      -62.8960  -82.6760  -17.6140 C.3     2  LIG2       -0.0344
     20    H      -63.4560  -81.0940  -12.2730 H       2  LIG2        0.0266
     21    H      -64.2400  -80.3570  -10.8910 H       2  LIG2        0.0266
     22    H      -64.2630  -78.1620  -11.9920 H       2  LIG2        0.0301
     23    H      -64.9920  -79.3600  -13.0620 H       2  LIG2        0.0301
     24    H      -63.4440  -77.8950  -14.3250 H       2  LIG2        0.0754
     25    H      -61.9090  -77.2470  -12.4810 H       2  LIG2        0.0594
     26    H      -60.2610  -78.8620  -11.5690 H       2  LIG2        0.0285
     27    H      -60.7240  -80.0800  -12.7120 H       2  LIG2        0.0285
     28    H      -61.7210  -80.7230  -10.6200 H       2  LIG2        0.0266
     29    H      -62.2640  -79.1230  -10.2720 H       2  LIG2        0.0266
     30    H      -60.9490  -81.1700  -16.7940 H       2  LIG2        0.1507
     31    H      -63.7740  -81.5250  -16.0040 H       2  LIG2        0.0499
     32    H      -62.6330  -82.6150  -14.1160 H       2  LIG2        0.0283
     33    H      -61.5350  -83.4530  -15.1800 H       2  LIG2        0.0283
     34    H      -64.5440  -83.9590  -14.8990 H       2  LIG2        0.0266
     35    H      -63.2400  -85.0480  -14.4340 H       2  LIG2        0.0266
     36    H      -64.2970  -85.7220  -16.5990 H       2  LIG2        0.0265
     37    H      -62.5860  -85.3560  -16.7850 H       2  LIG2        0.0265
     38    H      -64.9140  -83.4830  -17.4860 H       2  LIG2        0.0266
     39    H      -63.8760  -84.3270  -18.6380 H       2  LIG2        0.0266
     40    H      -61.9060  -83.0350  -17.8960 H       2  LIG2        0.0283
     41    H      -63.1880  -81.9260  -18.3470 H       2  LIG2        0.0283
@<TRIPOS>BOND
     1    39    18    1
     2    41    19    1
     3    40    19    1
     4    18    19    1
     5    18    38    1
     6    18    17    1
     7    19    14    1
     8    30    13    1
     9    37    17    1
    10    36    17    1
    11    17    16    1
    12    14    13    1
    13    14    31    1
    14    14    15    1
    15    13     8    1
    16     9     8    2
    17     9    10    1
    18     8     7    1
    19    33    15    1
    20    16    15    1
    21    16    34    1
    22    16    35    1
    23    11    10    2
    24    15    32    1
    25     7     3    1
    26    10    12    2
    27    10     4    1
    28    24     3    1
    29     3     4    1
    30     3     2    1
    31    23     2    1
    32     4    25    1
    33     4     5    1
    34    27     5    1
    35     2    22    1
    36     2     1    1
    37    20     1    1
    38     5    26    1
    39     5     6    1
    40     1     6    1
    41     1    21    1
    42     6    28    1
    43     6    29    1
