@<TRIPOS>MOLECULE
4k1l_ligand_run_16.pdb
 41 43 0 0 0
SMALL
GASTEIGER

@<TRIPOS>ATOM
      1    C      -63.5280  -80.1720  -11.6960 C.3     2  LIG2       -0.0496
      2    C      -64.0570  -79.0450  -12.5970 C.3     2  LIG2       -0.0138
      3    C      -63.0270  -78.6860  -13.7020 C.3     2  LIG2        0.1271
      4    C      -61.7160  -78.1620  -13.0410 C.3     2  LIG2        0.1364
      5    C      -61.1200  -79.2660  -12.1050 C.3     2  LIG2       -0.0252
      6    C      -62.1370  -79.8320  -11.0900 C.3     2  LIG2       -0.0510
      7    O      -62.8240  -79.8120  -14.4890 O.2     2  LIG2       -0.4594
      8    C      -61.7840  -79.9750  -15.3800 C.2     2  LIG2        0.3010
      9    N      -60.6800  -79.1180  -15.4110 N.2     2  LIG2       -0.0802
     10    S      -60.6110  -77.8210  -14.4730 S.O2    2  LIG2        0.0800
     11    O      -61.2190  -76.6230  -15.1300 O.2     2  LIG2       -0.1510
     12    O      -59.2400  -77.6030  -13.9100 O.2     2  LIG2       -0.1510
     13    N      -61.7410  -81.0320  -16.1820 N.pl3   2  LIG2       -0.2952
     14    C      -62.8280  -82.0260  -16.2100 C.3     2  LIG2        0.0247
     15    C      -62.5590  -83.0900  -15.0950 C.3     2  LIG2       -0.0344
     16    C      -63.5410  -84.2940  -15.1610 C.3     2  LIG2       -0.0514
     17    C      -63.5610  -84.9180  -16.5690 C.3     2  LIG2       -0.0529
     18    C      -63.9050  -83.8600  -17.6540 C.3     2  LIG2       -0.0514
     19    C      -62.8960  -82.6760  -17.6140 C.3     2  LIG2       -0.0344
     20    H      -63.4560  -81.0940  -12.2730 H       2  LIG2        0.0266
     21    H      -64.2400  -80.3570  -10.8910 H       2  LIG2        0.0266
     22    H      -64.2630  -78.1620  -11.9920 H       2  LIG2        0.0301
     23    H      -64.9920  -79.3600  -13.0620 H       2  LIG2        0.0301
     24    H      -63.4440  -77.8950  -14.3250 H       2  LIG2        0.0754
     25    H      -61.9090  -77.2470  -12.4810 H       2  LIG2        0.0594
     26    H      -60.2610  -78.8620  -11.5690 H       2  LIG2        0.0285
     27    H      -60.7240  -80.0800  -12.7120 H       2  LIG2        0.0285
     28    H      -61.7210  -80.7230  -10.6200 H       2  LIG2        0.0266
     29    H      -62.2640  -79.1230  -10.2720 H       2  LIG2        0.0266
     30    H      -60.9490  -81.1700  -16.7940 H       2  LIG2        0.1507
     31    H      -63.7740  -81.5250  -16.0040 H       2  LIG2        0.0499
     32    H      -62.6330  -82.6150  -14.1160 H       2  LIG2        0.0283
     33    H      -61.5350  -83.4530  -15.1800 H       2  LIG2        0.0283
     34    H      -64.5440  -83.9590  -14.8990 H       2  LIG2        0.0266
     35    H      -63.2400  -85.0480  -14.4340 H       2  LIG2        0.0266
     36    H      -64.2970  -85.7220  -16.5990 H       2  LIG2        0.0265
     37    H      -62.5860  -85.3560  -16.7850 H       2  LIG2        0.0265
     38    H      -64.9140  -83.4830  -17.4860 H       2  LIG2        0.0266
     39    H      -63.8760  -84.3270  -18.6380 H       2  LIG2        0.0266
     40    H      -61.9060  -83.0350  -17.8960 H       2  LIG2        0.0283
     41    H      -63.1880  -81.9260  -18.3470 H       2  LIG2        0.0283
@<TRIPOS>BOND
     1    39    18    1
     2    41    19    1
     3    40    19    1
     4    18    19    1
     5    18    38    1
     6    18    17    1
     7    19    14    1
     8    30    13    1
     9    37    17    1
    10    36    17    1
    11    17    16    1
    12    14    13    1
    13    14    31    1
    14    14    15    1
    15    13     8    1
    16     9     8    2
    17     9    10    1
    18     8     7    1
    19    33    15    1
    20    16    15    1
    21    16    34    1
    22    16    35    1
    23    11    10    2
    24    15    32    1
    25     7     3    1
    26    10    12    2
    27    10     4    1
    28    24     3    1
    29     3     4    1
    30     3     2    1
    31    23     2    1
    32     4    25    1
    33     4     5    1
    34    27     5    1
    35     2    22    1
    36     2     1    1
    37    20     1    1
    38     5    26    1
    39     5     6    1
    40     1     6    1
    41     1    21    1
    42     6    28    1
    43     6    29    1
@<TRIPOS>MOLECULE
4k1l_ligand_run_8.pdb
 41 43 0 0 0
SMALL
GASTEIGER

@<TRIPOS>ATOM
      1    C      -60.2390  -78.4000  -14.7010 C.3     2  LIG2       -0.0496
      2    C      -60.2040  -79.0160  -13.2930 C.3     2  LIG2       -0.0138
      3    C      -61.6380  -79.1740  -12.7190 C.3     2  LIG2        0.1271
      4    C      -62.3030  -77.7710  -12.5840 C.3     2  LIG2        0.1364
      5    C      -62.3710  -77.0830  -13.9900 C.3     2  LIG2       -0.0252
      6    C      -61.0170  -77.0540  -14.7310 C.3     2  LIG2       -0.0510
      7    O      -62.3460  -80.0310  -13.5510 O.2     2  LIG2       -0.4594
      8    C      -63.7160  -80.1900  -13.5370 C.2     2  LIG2        0.3010
      9    N      -64.5670  -79.3230  -12.8450 N.2     2  LIG2       -0.0802
     10    S      -63.9830  -78.1440  -11.9320 S.O2    2  LIG2        0.0800
     11    O      -63.7400  -78.5940  -10.5260 O.2     2  LIG2       -0.1510
     12    O      -64.7790  -76.8820  -12.0610 O.2     2  LIG2       -0.1510
     13    N      -64.2950  -81.1250  -14.2820 N.pl3   2  LIG2       -0.2952
     14    C      -63.5040  -82.1030  -15.0490 C.3     2  LIG2        0.0247
     15    C      -63.2260  -81.5120  -16.4710 C.3     2  LIG2       -0.0344
     16    C      -62.5630  -82.5400  -17.4310 C.3     2  LIG2       -0.0514
     17    C      -63.3750  -83.8470  -17.4920 C.3     2  LIG2       -0.0529
     18    C      -63.5750  -84.4580  -16.0770 C.3     2  LIG2       -0.0514
     19    C      -64.2760  -83.4420  -15.1290 C.3     2  LIG2       -0.0344
     20    H      -60.7030  -79.1020  -15.3920 H       2  LIG2        0.0266
     21    H      -59.2190  -78.2380  -15.0510 H       2  LIG2        0.0266
     22    H      -59.6170  -78.3790  -12.6320 H       2  LIG2        0.0301
     23    H      -59.7210  -79.9920  -13.3360 H       2  LIG2        0.0301
     24    H      -61.5700  -79.6240  -11.7290 H       2  LIG2        0.0754
     25    H      -61.7480  -77.1500  -11.8800 H       2  LIG2        0.0594
     26    H      -62.7440  -76.0650  -13.8770 H       2  LIG2        0.0285
     27    H      -63.1100  -77.5940  -14.6060 H       2  LIG2        0.0285
     28    H      -61.1780  -76.7530  -15.7660 H       2  LIG2        0.0266
     29    H      -60.3910  -76.2660  -14.3100 H       2  LIG2        0.0266
     30    H      -65.3020  -81.1800  -14.3310 H       2  LIG2        0.1507
     31    H      -62.5540  -82.2690  -14.5400 H       2  LIG2        0.0499
     32    H      -62.5840  -80.6350  -16.3800 H       2  LIG2        0.0283
     33    H      -64.1610  -81.1610  -16.9060 H       2  LIG2        0.0283
     34    H      -61.5510  -82.7580  -17.0890 H       2  LIG2        0.0266
     35    H      -62.4920  -82.1100  -18.4310 H       2  LIG2        0.0266
     36    H      -62.8580  -84.5660  -18.1280 H       2  LIG2        0.0265
     37    H      -64.3480  -83.6490  -17.9420 H       2  LIG2        0.0265
     38    H      -62.6060  -84.7340  -15.6610 H       2  LIG2        0.0266
     39    H      -64.1810  -85.3600  -16.1540 H       2  LIG2        0.0266
     40    H      -65.2900  -83.2560  -15.4840 H       2  LIG2        0.0283
     41    H      -64.3580  -83.8740  -14.1320 H       2  LIG2        0.0283
@<TRIPOS>BOND
     1    35    16    1
     2    36    17    1
     3    37    17    1
     4    17    16    1
     5    17    18    1
     6    16    34    1
     7    16    15    1
     8    33    15    1
     9    15    32    1
    10    15    14    1
    11    39    18    1
    12    18    38    1
    13    18    19    1
    14    28     6    1
    15    40    19    1
    16    20     1    1
    17    19    14    1
    18    19    41    1
    19    21     1    1
    20    14    31    1
    21    14    13    1
    22     6     1    1
    23     6    29    1
    24     6     5    1
    25     1     2    1
    26    27     5    1
    27    30    13    1
    28    13     8    1
    29     5    26    1
    30     5     4    1
    31     7     8    1
    32     7     3    1
    33     8     9    2
    34    23     2    1
    35     2     3    1
    36     2    22    1
    37     9    10    1
    38     3     4    1
    39     3    24    1
    40     4    10    1
    41     4    25    1
    42    12    10    2
    43    10    11    2
@<TRIPOS>MOLECULE
4k1l_ligand_run_23.pdb
 41 43 0 0 0
SMALL
GASTEIGER

@<TRIPOS>ATOM
      1    C      -60.2560  -77.0110  -14.4250 C.3     2  LIG2       -0.0496
      2    C      -59.9540  -78.0710  -13.3540 C.3     2  LIG2       -0.0138
      3    C      -61.0720  -79.1470  -13.3050 C.3     2  LIG2        0.1271
      4    C      -62.4230  -78.4770  -12.9120 C.3     2  LIG2        0.1364
      5    C      -62.7940  -77.3800  -13.9670 C.3     2  LIG2       -0.0252
      6    C      -61.6580  -76.3670  -14.2320 C.3     2  LIG2       -0.0510
      7    O      -61.1200  -79.7790  -14.5400 O.2     2  LIG2       -0.4594
      8    C      -62.1540  -80.5800  -14.9770 C.2     2  LIG2        0.3010
      9    N      -63.3840  -80.6480  -14.3150 N.2     2  LIG2       -0.0802
     10    S      -63.6250  -79.8700  -12.9350 S.O2    2  LIG2        0.0800
     11    O      -63.2470  -80.7020  -11.7510 O.2     2  LIG2       -0.1510
     12    O      -64.9900  -79.2560  -12.8640 O.2     2  LIG2       -0.1510
     13    N      -62.0570  -81.2450  -16.1220 N.pl3   2  LIG2       -0.2952
     14    C      -63.0170  -82.3020  -16.4860 C.3     2  LIG2        0.0247
     15    C      -62.8070  -83.5190  -15.5260 C.3     2  LIG2       -0.0344
     16    C      -63.6360  -84.7670  -15.9440 C.3     2  LIG2       -0.0514
     17    C      -63.3800  -85.1360  -17.4170 C.3     2  LIG2       -0.0529
     18    C      -63.6690  -83.9350  -18.3610 C.3     2  LIG2       -0.0514
     19    C      -62.8070  -82.7010  -17.9670 C.3     2  LIG2       -0.0344
     20    H      -60.2000  -77.4670  -15.4130 H       2  LIG2        0.0266
     21    H      -59.4920  -76.2330  -14.3910 H       2  LIG2        0.0266
     22    H      -59.8700  -77.5900  -12.3800 H       2  LIG2        0.0301
     23    H      -59.0000  -78.5490  -13.5760 H       2  LIG2        0.0301
     24    H      -60.8140  -79.8840  -12.5450 H       2  LIG2        0.0754
     25    H      -62.3590  -78.0430  -11.9140 H       2  LIG2        0.0594
     26    H      -63.6850  -76.8470  -13.6370 H       2  LIG2        0.0285
     27    H      -63.0760  -77.8600  -14.9030 H       2  LIG2        0.0285
     28    H      -61.9050  -75.7690  -15.1090 H       2  LIG2        0.0266
     29    H      -61.6160  -75.6490  -13.4120 H       2  LIG2        0.0266
     30    H      -61.3110  -81.0320  -16.7690 H       2  LIG2        0.1507
     31    H      -64.0310  -81.9200  -16.3610 H       2  LIG2        0.0499
     32    H      -63.0750  -83.2290  -14.5100 H       2  LIG2        0.0283
     33    H      -61.7490  -83.7800  -15.4990 H       2  LIG2        0.0283
     34    H      -64.6970  -84.5620  -15.8000 H       2  LIG2        0.0266
     35    H      -63.3690  -85.6100  -15.3070 H       2  LIG2        0.0266
     36    H      -64.0150  -85.9770  -17.6950 H       2  LIG2        0.0265
     37    H      -62.3440  -85.4510  -17.5370 H       2  LIG2        0.0265
     38    H      -64.7250  -83.6740  -18.3040 H       2  LIG2        0.0266
     39    H      -63.4450  -84.2210  -19.3890 H       2  LIG2        0.0266
     40    H      -61.7540  -82.9260  -18.1370 H       2  LIG2        0.0283
     41    H      -63.0640  -81.8600  -18.6100 H       2  LIG2        0.0283
@<TRIPOS>BOND
     1    39    18    1
     2    41    19    1
     3    18    38    1
     4    18    19    1
     5    18    17    1
     6    40    19    1
     7    19    14    1
     8    36    17    1
     9    37    17    1
    10    17    16    1
    11    30    13    1
    12    14    31    1
    13    14    13    1
    14    14    15    1
    15    13     8    1
    16    16    34    1
    17    16    15    1
    18    16    35    1
    19    15    33    1
    20    15    32    1
    21    20     1    1
    22    28     6    1
    23     8     7    1
    24     8     9    2
    25    27     5    1
    26     7     3    1
    27     1    21    1
    28     1     6    1
    29     1     2    1
    30     9    10    1
    31     6     5    1
    32     6    29    1
    33     5    26    1
    34     5     4    1
    35    23     2    1
    36     2     3    1
    37     2    22    1
    38     3     4    1
    39     3    24    1
    40    10     4    1
    41    10    12    2
    42    10    11    2
    43     4    25    1
@<TRIPOS>MOLECULE
4k1l_ligand_run_17.pdb
 41 43 0 0 0
SMALL
GASTEIGER

@<TRIPOS>ATOM
      1    C      -63.6720  -76.3080  -13.3940 C.3     2  LIG2       -0.0496
      2    C      -62.1920  -76.3790  -13.8030 C.3     2  LIG2       -0.0138
      3    C      -61.6700  -77.8400  -13.7530 C.3     2  LIG2        0.1271
      4    C      -61.7640  -78.3780  -12.2930 C.3     2  LIG2        0.1364
      5    C      -63.2530  -78.3340  -11.8100 C.3     2  LIG2       -0.0252
      6    C      -63.9270  -76.9580  -12.0040 C.3     2  LIG2       -0.0510
      7    O      -62.4060  -78.5950  -14.6560 O.2     2  LIG2       -0.4594
      8    C      -62.4350  -79.9730  -14.6930 C.2     2  LIG2        0.3010
      9    N      -61.9120  -80.7650  -13.6650 N.2     2  LIG2       -0.0802
     10    S      -61.1460  -80.1060  -12.4220 S.O2    2  LIG2        0.0800
     11    O      -59.6820  -79.9550  -12.6850 O.2     2  LIG2       -0.1510
     12    O      -61.4880  -80.7790  -11.1280 O.2     2  LIG2       -0.1510
     13    N      -63.0680  -80.6100  -15.6720 N.pl3   2  LIG2       -0.2952
     14    C      -62.9240  -82.0630  -15.8690 C.3     2  LIG2        0.0247
     15    C      -63.1400  -82.3840  -17.3840 C.3     2  LIG2       -0.0344
     16    C      -63.2010  -83.9110  -17.6740 C.3     2  LIG2       -0.0514
     17    C      -64.2440  -84.6050  -16.7780 C.3     2  LIG2       -0.0529
     18    C      -63.9660  -84.3360  -15.2720 C.3     2  LIG2       -0.0514
     19    C      -63.9470  -82.8080  -14.9770 C.3     2  LIG2       -0.0344
     20    H      -64.2800  -76.8110  -14.1460 H       2  LIG2        0.0266
     21    H      -63.9930  -75.2670  -13.3720 H       2  LIG2        0.0266
     22    H      -61.6000  -75.7590  -13.1300 H       2  LIG2        0.0301
     23    H      -62.0760  -75.9870  -14.8130 H       2  LIG2        0.0301
     24    H      -60.6250  -77.8480  -14.0600 H       2  LIG2        0.0754
     25    H      -61.1290  -77.7930  -11.6280 H       2  LIG2        0.0594
     26    H      -63.3020  -78.6150  -10.7580 H       2  LIG2        0.0285
     27    H      -63.8270  -79.0950  -12.3390 H       2  LIG2        0.0285
     28    H      -65.0010  -77.0550  -11.8420 H       2  LIG2        0.0266
     29    H      -63.5910  -76.2770  -11.2210 H       2  LIG2        0.0266
     30    H      -63.6660  -80.0980  -16.3040 H       2  LIG2        0.1507
     31    H      -61.9150  -82.3630  -15.5810 H       2  LIG2        0.0499
     32    H      -62.3350  -81.9370  -17.9680 H       2  LIG2        0.0283
     33    H      -64.0610  -81.9130  -17.7270 H       2  LIG2        0.0283
     34    H      -62.2210  -84.3540  -17.5000 H       2  LIG2        0.0266
     35    H      -63.4590  -84.0720  -18.7210 H       2  LIG2        0.0266
     36    H      -64.2240  -85.6790  -16.9640 H       2  LIG2        0.0265
     37    H      -65.2400  -84.2440  -17.0330 H       2  LIG2        0.0265
     38    H      -63.0060  -84.7710  -14.9970 H       2  LIG2        0.0266
     39    H      -64.7400  -84.8120  -14.6700 H       2  LIG2        0.0266
     40    H      -64.9420  -82.3940  -15.1420 H       2  LIG2        0.0283
     41    H      -63.7000  -82.6450  -13.9280 H       2  LIG2        0.0283
@<TRIPOS>BOND
     1    35    16    1
     2    32    15    1
     3    33    15    1
     4    16    34    1
     5    16    15    1
     6    16    17    1
     7    15    14    1
     8    37    17    1
     9    36    17    1
    10    17    18    1
    11    30    13    1
    12    14    13    1
    13    14    31    1
    14    14    19    1
    15    13     8    1
    16    18    38    1
    17    18    19    1
    18    18    39    1
    19    40    19    1
    20    19    41    1
    21    23     2    1
    22     8     7    1
    23     8     9    2
    24     7     3    1
    25    20     1    1
    26    24     3    1
    27     2     3    1
    28     2     1    1
    29     2    22    1
    30     3     4    1
    31     9    10    1
    32     1    21    1
    33     1     6    1
    34    11    10    2
    35    10     4    1
    36    10    12    2
    37    27     5    1
    38     4     5    1
    39     4    25    1
    40     6    28    1
    41     6     5    1
    42     6    29    1
    43     5    26    1
@<TRIPOS>MOLECULE
4k1l_ligand_run_13.pdb
 41 43 0 0 0
SMALL
GASTEIGER

@<TRIPOS>ATOM
      1    C      -62.2930  -77.3970  -14.6320 C.3     2  LIG2       -0.0496
      2    C      -61.0450  -78.0950  -14.0690 C.3     2  LIG2       -0.0138
      3    C      -61.4330  -79.1540  -13.0020 C.3     2  LIG2        0.1271
      4    C      -62.1400  -78.4520  -11.8040 C.3     2  LIG2        0.1364
      5    C      -63.4280  -77.7170  -12.3090 C.3     2  LIG2       -0.0252
      6    C      -63.1750  -76.7800  -13.5100 C.3     2  LIG2       -0.0510
      7    O      -62.2280  -80.1140  -13.6130 O.2     2  LIG2       -0.4594
      8    C      -62.9950  -81.0450  -12.9440 C.2     2  LIG2        0.3010
      9    N      -63.2430  -80.9680  -11.5710 N.2     2  LIG2       -0.0802
     10    S      -62.5550  -79.8380  -10.6670 S.O2    2  LIG2        0.0800
     11    O      -61.2320  -80.2820  -10.1290 O.2     2  LIG2       -0.1510
     12    O      -63.4970  -79.2820   -9.6440 O.2     2  LIG2       -0.1510
     13    N      -63.6250  -82.0060  -13.6110 N.pl3   2  LIG2       -0.2952
     14    C      -63.4130  -82.2120  -15.0540 C.3     2  LIG2        0.0247
     15    C      -64.6410  -82.9900  -15.6320 C.3     2  LIG2       -0.0344
     16    C      -64.4350  -83.4320  -17.1090 C.3     2  LIG2       -0.0514
     17    C      -63.1180  -84.2140  -17.2760 C.3     2  LIG2       -0.0529
     18    C      -61.9010  -83.3930  -16.7660 C.3     2  LIG2       -0.0514
     19    C      -62.0910  -82.9880  -15.2760 C.3     2  LIG2       -0.0344
     20    H      -62.8830  -78.1150  -15.2030 H       2  LIG2        0.0266
     21    H      -61.9890  -76.6140  -15.3270 H       2  LIG2        0.0266
     22    H      -60.3850  -77.3520  -13.6200 H       2  LIG2        0.0301
     23    H      -60.5030  -78.5800  -14.8810 H       2  LIG2        0.0301
     24    H      -60.5240  -79.6320  -12.6380 H       2  LIG2        0.0754
     25    H      -61.4630  -77.7480  -11.3180 H       2  LIG2        0.0594
     26    H      -63.8640  -77.1460  -11.4890 H       2  LIG2        0.0285
     27    H      -64.1820  -78.4560  -12.5790 H       2  LIG2        0.0285
     28    H      -64.1300  -76.4670  -13.9320 H       2  LIG2        0.0266
     29    H      -62.7150  -75.8560  -13.1570 H       2  LIG2        0.0266
     30    H      -64.2670  -82.6180  -13.1280 H       2  LIG2        0.1507
     31    H      -63.3430  -81.2420  -15.5460 H       2  LIG2        0.0499
     32    H      -65.5320  -82.3660  -15.5620 H       2  LIG2        0.0283
     33    H      -64.8360  -83.8680  -15.0160 H       2  LIG2        0.0283
     34    H      -64.4170  -82.5520  -17.7520 H       2  LIG2        0.0266
     35    H      -65.2710  -84.0580  -17.4210 H       2  LIG2        0.0266
     36    H      -62.9740  -84.4610  -18.3280 H       2  LIG2        0.0265
     37    H      -63.1810  -85.1510  -16.7230 H       2  LIG2        0.0265
     38    H      -61.7880  -82.4960  -17.3750 H       2  LIG2        0.0266
     39    H      -60.9940  -83.9880  -16.8670 H       2  LIG2        0.0266
     40    H      -62.0870  -83.8830  -14.6540 H       2  LIG2        0.0283
     41    H      -61.2510  -82.3710  -14.9580 H       2  LIG2        0.0283
@<TRIPOS>BOND
     1    36    17    1
     2    34    16    1
     3    35    16    1
     4    38    18    1
     5    17    16    1
     6    17    18    1
     7    17    37    1
     8    16    15    1
     9    39    18    1
    10    18    19    1
    11    15    32    1
    12    15    14    1
    13    15    33    1
    14    31    14    1
    15    21     1    1
    16    19    14    1
    17    19    41    1
    18    19    40    1
    19    20     1    1
    20    14    13    1
    21    23     2    1
    22     1     2    1
    23     1     6    1
    24     2    22    1
    25     2     3    1
    26    28     6    1
    27     7     3    1
    28     7     8    1
    29    13    30    1
    30    13     8    1
    31     6    29    1
    32     6     5    1
    33     3    24    1
    34     3     4    1
    35     8     9    2
    36    27     5    1
    37     5     4    1
    38     5    26    1
    39     4    25    1
    40     4    10    1
    41     9    10    1
    42    10    11    2
    43    10    12    2
@<TRIPOS>MOLECULE
4k1l_ligand_run_6.pdb
 41 43 0 0 0
SMALL
GASTEIGER

@<TRIPOS>ATOM
      1    C      -63.1240  -83.1100  -18.5210 C.3     2  LIG2       -0.0496
      2    C      -64.5070  -83.2710  -17.8700 C.3     2  LIG2       -0.0138
      3    C      -64.4840  -82.8010  -16.3900 C.3     2  LIG2        0.1271
      4    C      -63.4930  -83.6890  -15.5780 C.3     2  LIG2        0.1364
      5    C      -62.0570  -83.5710  -16.1900 C.3     2  LIG2       -0.0252
      6    C      -62.0090  -83.8310  -17.7120 C.3     2  LIG2       -0.0510
      7    O      -64.1480  -81.4540  -16.3680 O.2     2  LIG2       -0.4594
      8    C      -63.7500  -80.7590  -15.2450 C.2     2  LIG2        0.3010
      9    N      -63.4090  -81.3960  -14.0480 N.2     2  LIG2       -0.0802
     10    S      -63.5640  -82.9820  -13.8800 S.O2    2  LIG2        0.0800
     11    O      -64.9220  -83.3600  -13.3800 O.2     2  LIG2       -0.1510
     12    O      -62.4220  -83.5830  -13.1200 O.2     2  LIG2       -0.1510
     13    N      -63.5700  -79.4440  -15.2930 N.pl3   2  LIG2       -0.2952
     14    C      -62.7560  -78.7380  -14.2890 C.3     2  LIG2        0.0247
     15    C      -63.0400  -77.2050  -14.4050 C.3     2  LIG2       -0.0344
     16    C      -62.0900  -76.3460  -13.5220 C.3     2  LIG2       -0.0514
     17    C      -60.6140  -76.6880  -13.8010 C.3     2  LIG2       -0.0529
     18    C      -60.3360  -78.2050  -13.6060 C.3     2  LIG2       -0.0514
     19    C      -61.2590  -79.0600  -14.5210 C.3     2  LIG2       -0.0344
     20    H      -62.8840  -82.0500  -18.6040 H       2  LIG2        0.0266
     21    H      -63.1530  -83.5090  -19.5350 H       2  LIG2        0.0266
     22    H      -64.8100  -84.3170  -17.9140 H       2  LIG2        0.0301
     23    H      -65.2400  -82.6850  -18.4250 H       2  LIG2        0.0301
     24    H      -65.4830  -82.9200  -15.9710 H       2  LIG2        0.0754
     25    H      -63.8240  -84.7270  -15.5740 H       2  LIG2        0.0594
     26    H      -61.3890  -84.2680  -15.6830 H       2  LIG2        0.0285
     27    H      -61.6540  -82.5810  -15.9790 H       2  LIG2        0.0285
     28    H      -61.0340  -83.5350  -18.0980 H       2  LIG2        0.0266
     29    H      -62.0650  -84.9040  -17.8970 H       2  LIG2        0.0266
     30    H      -63.9970  -78.9020  -16.0310 H       2  LIG2        0.1507
     31    H      -63.0430  -79.0800  -13.2940 H       2  LIG2        0.0499
     32    H      -64.0740  -77.0050  -14.1230 H       2  LIG2        0.0283
     33    H      -62.9440  -76.8960  -15.4460 H       2  LIG2        0.0283
     34    H      -62.3110  -76.5260  -12.4700 H       2  LIG2        0.0266
     35    H      -62.2620  -75.2890  -13.7250 H       2  LIG2        0.0266
     36    H      -59.9760  -76.1120  -13.1300 H       2  LIG2        0.0265
     37    H      -60.3620  -76.4020  -14.8220 H       2  LIG2        0.0265
     38    H      -60.5070  -78.4740  -12.5630 H       2  LIG2        0.0266
     39    H      -59.2930  -78.4160  -13.8430 H       2  LIG2        0.0266
     40    H      -61.0060  -78.8750  -15.5650 H       2  LIG2        0.0283
     41    H      -61.0810  -80.1170  -14.3280 H       2  LIG2        0.0283
@<TRIPOS>BOND
     1    21     1    1
     2    20     1    1
     3     1     2    1
     4     1     6    1
     5    23     2    1
     6    28     6    1
     7    22     2    1
     8    29     6    1
     9     2     3    1
    10     6     5    1
    11     3     7    1
    12     3    24    1
    13     3     4    1
    14     7     8    1
    15     5    27    1
    16     5    26    1
    17     5     4    1
    18    30    13    1
    19     4    25    1
    20     4    10    1
    21    40    19    1
    22    33    15    1
    23    13     8    1
    24    13    14    1
    25     8     9    2
    26    37    17    1
    27    19    41    1
    28    19    14    1
    29    19    18    1
    30    15    14    1
    31    15    32    1
    32    15    16    1
    33    14    31    1
    34     9    10    1
    35    10    11    2
    36    10    12    2
    37    39    18    1
    38    17    18    1
    39    17    16    1
    40    17    36    1
    41    35    16    1
    42    18    38    1
    43    16    34    1
@<TRIPOS>MOLECULE
4k1l_ligand_run_19.pdb
 41 43 0 0 0
SMALL
GASTEIGER

@<TRIPOS>ATOM
      1    C      -62.4350  -83.8290  -13.3800 C.3     2  LIG2       -0.0496
      2    C      -61.3540  -83.5000  -14.4210 C.3     2  LIG2       -0.0138
      3    C      -61.9660  -82.7770  -15.6510 C.3     2  LIG2        0.1271
      4    C      -62.9960  -83.7160  -16.3480 C.3     2  LIG2        0.1364
      5    C      -64.1330  -84.0930  -15.3390 C.3     2  LIG2       -0.0252
      6    C      -63.6090  -84.6440  -13.9940 C.3     2  LIG2       -0.0510
      7    O      -62.5290  -81.5830  -15.2160 O.2     2  LIG2       -0.4594
      8    C      -63.4060  -80.8120  -15.9500 C.2     2  LIG2        0.3010
      9    N      -64.0140  -81.2720  -17.1210 N.2     2  LIG2       -0.0802
     10    S      -63.6400  -82.7010  -17.7420 S.O2    2  LIG2        0.0800
     11    O      -62.4900  -82.6130  -18.6940 O.2     2  LIG2       -0.1510
     12    O      -64.8430  -83.4200  -18.2710 O.2     2  LIG2       -0.1510
     13    N      -63.7940  -79.6220  -15.5050 N.pl3   2  LIG2       -0.2952
     14    C      -63.2420  -79.0420  -14.2680 C.3     2  LIG2        0.0247
     15    C      -64.1060  -79.5310  -13.0590 C.3     2  LIG2       -0.0344
     16    C      -63.7310  -78.8250  -11.7250 C.3     2  LIG2       -0.0514
     17    C      -63.7600  -77.2920  -11.8800 C.3     2  LIG2       -0.0529
     18    C      -62.8360  -76.8210  -13.0380 C.3     2  LIG2       -0.0514
     19    C      -63.2400  -77.4970  -14.3800 C.3     2  LIG2       -0.0344
     20    H      -62.8210  -82.9040  -12.9530 H       2  LIG2        0.0266
     21    H      -61.9900  -84.3950  -12.5620 H       2  LIG2        0.0266
     22    H      -60.8690  -84.4210  -14.7460 H       2  LIG2        0.0301
     23    H      -60.5950  -82.8630  -13.9670 H       2  LIG2        0.0301
     24    H      -61.1680  -82.5500  -16.3570 H       2  LIG2        0.0754
     25    H      -62.5040  -84.6130  -16.7230 H       2  LIG2        0.0594
     26    H      -64.7950  -84.8270  -15.7970 H       2  LIG2        0.0285
     27    H      -64.7560  -83.2190  -15.1530 H       2  LIG2        0.0285
     28    H      -64.4300  -84.6890  -13.2780 H       2  LIG2        0.0266
     29    H      -63.2990  -85.6810  -14.1240 H       2  LIG2        0.0266
     30    H      -64.4840  -79.0920  -16.0170 H       2  LIG2        0.1507
     31    H      -62.2170  -79.3910  -14.1380 H       2  LIG2        0.0499
     32    H      -63.9900  -80.6090  -12.9430 H       2  LIG2        0.0283
     33    H      -65.1610  -79.3600  -13.2750 H       2  LIG2        0.0283
     34    H      -62.7340  -79.1380  -11.4160 H       2  LIG2        0.0266
     35    H      -64.4320  -79.1240  -10.9460 H       2  LIG2        0.0266
     36    H      -63.4400  -76.8270  -10.9480 H       2  LIG2        0.0265
     37    H      -64.7820  -76.9670  -12.0770 H       2  LIG2        0.0265
     38    H      -61.8020  -77.0720  -12.8020 H       2  LIG2        0.0266
     39    H      -62.9080  -75.7390  -13.1410 H       2  LIG2        0.0266
     40    H      -64.2320  -77.1540  -14.6750 H       2  LIG2        0.0283
     41    H      -62.5470  -77.1910  -15.1630 H       2  LIG2        0.0283
@<TRIPOS>BOND
     1    11    10    2
     2    12    10    2
     3    10     9    1
     4    10     4    1
     5     9     8    2
     6    25     4    1
     7    24     3    1
     8     4     3    1
     9     4     5    1
    10    30    13    1
    11     8    13    1
    12     8     7    1
    13    26     5    1
    14     3     7    1
    15     3     2    1
    16    13    14    1
    17     5    27    1
    18     5     6    1
    19    41    19    1
    20    22     2    1
    21    40    19    1
    22     2    23    1
    23     2     1    1
    24    19    14    1
    25    19    18    1
    26    14    31    1
    27    14    15    1
    28    29     6    1
    29     6     1    1
    30     6    28    1
    31     1    20    1
    32     1    21    1
    33    33    15    1
    34    39    18    1
    35    15    32    1
    36    15    16    1
    37    18    38    1
    38    18    17    1
    39    37    17    1
    40    17    16    1
    41    17    36    1
    42    16    34    1
    43    16    35    1
@<TRIPOS>MOLECULE
4k1l_ligand_run_17.pdb
 41 43 0 0 0
SMALL
GASTEIGER

@<TRIPOS>ATOM
      1    C      -61.5960  -80.6100  -11.3980 C.3     2  LIG2       -0.0496
      2    C      -62.9840  -80.0400  -11.0660 C.3     2  LIG2       -0.0138
      3    C      -63.4860  -79.1020  -12.1970 C.3     2  LIG2        0.1271
      4    C      -62.5180  -77.8880  -12.3350 C.3     2  LIG2        0.1364
      5    C      -61.0770  -78.3990  -12.6760 C.3     2  LIG2       -0.0252
      6    C      -60.5630  -79.4900  -11.7100 C.3     2  LIG2       -0.0510
      7    O      -63.5910  -79.8470  -13.3640 O.2     2  LIG2       -0.4594
      8    C      -63.7250  -79.3150  -14.6290 C.2     2  LIG2        0.3010
      9    N      -63.5280  -77.9580  -14.9000 N.2     2  LIG2       -0.0802
     10    S      -63.2340  -76.9130  -13.7220 S.O2    2  LIG2        0.0800
     11    O      -64.4950  -76.3400  -13.1560 O.2     2  LIG2       -0.1510
     12    O      -62.2000  -75.9010  -14.1090 O.2     2  LIG2       -0.1510
     13    N      -63.9460  -80.1050  -15.6740 N.pl3   2  LIG2       -0.2952
     14    C      -63.4880  -81.5050  -15.6950 C.3     2  LIG2        0.0247
     15    C      -63.2680  -81.9360  -17.1830 C.3     2  LIG2       -0.0344
     16    C      -62.9700  -83.4550  -17.3330 C.3     2  LIG2       -0.0514
     17    C      -64.0480  -84.3040  -16.6340 C.3     2  LIG2       -0.0529
     18    C      -64.1970  -83.9130  -15.1380 C.3     2  LIG2       -0.0514
     19    C      -64.5370  -82.4010  -14.9910 C.3     2  LIG2       -0.0344
     20    H      -61.6750  -81.2790  -12.2550 H       2  LIG2        0.0266
     21    H      -61.2400  -81.2090  -10.5600 H       2  LIG2        0.0266
     22    H      -62.9340  -79.4850  -10.1290 H       2  LIG2        0.0301
     23    H      -63.6910  -80.8590  -10.9340 H       2  LIG2        0.0301
     24    H      -64.4750  -78.7300  -11.9290 H       2  LIG2        0.0754
     25    H      -62.5090  -77.2990  -11.4180 H       2  LIG2        0.0594
     26    H      -60.3850  -77.5580  -12.6730 H       2  LIG2        0.0285
     27    H      -61.0620  -78.7830  -13.6960 H       2  LIG2        0.0285
     28    H      -59.6580  -79.9380  -12.1210 H       2  LIG2        0.0266
     29    H      -60.2420  -79.0260  -10.7780 H       2  LIG2        0.0266
     30    H      -64.4390  -79.7500  -16.4810 H       2  LIG2        0.1507
     31    H      -62.5410  -81.5780  -15.1590 H       2  LIG2        0.0499
     32    H      -62.4450  -81.3610  -17.6080 H       2  LIG2        0.0283
     33    H      -64.1510  -81.6810  -17.7680 H       2  LIG2        0.0283
     34    H      -61.9950  -83.6780  -16.9000 H       2  LIG2        0.0266
     35    H      -62.9330  -83.7150  -18.3910 H       2  LIG2        0.0266
     36    H      -63.7830  -85.3590  -16.7090 H       2  LIG2        0.0265
     37    H      -65.0030  -84.1680  -17.1420 H       2  LIG2        0.0265
     38    H      -63.2670  -84.1290  -14.6120 H       2  LIG2        0.0266
     39    H      -64.9890  -84.5080  -14.6840 H       2  LIG2        0.0266
     40    H      -65.5220  -82.2090  -15.4160 H       2  LIG2        0.0283
     41    H      -64.5850  -82.1410  -13.9350 H       2  LIG2        0.0283
@<TRIPOS>BOND
     1    35    16    1
     2    33    15    1
     3    32    15    1
     4    16    15    1
     5    16    34    1
     6    16    17    1
     7    15    14    1
     8    37    17    1
     9    36    17    1
    10    17    18    1
    11    30    13    1
    12    14    13    1
    13    14    31    1
    14    14    19    1
    15    13     8    1
    16    40    19    1
    17    18    19    1
    18    18    39    1
    19    18    38    1
    20    19    41    1
    21     9     8    2
    22     9    10    1
    23     8     7    1
    24    12    10    2
    25    10    11    2
    26    10     4    1
    27    27     5    1
    28     7     3    1
    29     5    26    1
    30     5     4    1
    31     5     6    1
    32     4     3    1
    33     4    25    1
    34    20     1    1
    35     3    24    1
    36     3     2    1
    37    28     6    1
    38     6     1    1
    39     6    29    1
    40     1     2    1
    41     1    21    1
    42     2    23    1
    43     2    22    1
@<TRIPOS>MOLECULE
4k1l_ligand_run_5.pdb
 41 43 0 0 0
SMALL
GASTEIGER

@<TRIPOS>ATOM
      1    C      -64.4130  -83.3190  -18.0280 C.3     2  LIG2       -0.0496
      2    C      -64.9170  -84.2060  -16.8790 C.3     2  LIG2       -0.0138
      3    C      -64.1910  -83.8620  -15.5500 C.3     2  LIG2        0.1271
      4    C      -62.6650  -84.1390  -15.7020 C.3     2  LIG2        0.1364
      5    C      -62.0830  -83.2620  -16.8620 C.3     2  LIG2       -0.0252
      6    C      -62.8670  -83.3890  -18.1870 C.3     2  LIG2       -0.0510
      7    O      -64.4720  -82.5400  -15.2320 O.2     2  LIG2       -0.4594
      8    C      -63.7910  -81.7920  -14.2950 C.2     2  LIG2        0.3010
      9    N      -62.5820  -82.2110  -13.7320 N.2     2  LIG2       -0.0802
     10    S      -61.9670  -83.6520  -14.0700 S.O2    2  LIG2        0.0800
     11    O      -62.4600  -84.7040  -13.1300 O.2     2  LIG2       -0.1510
     12    O      -60.4790  -83.6040  -14.2410 O.2     2  LIG2       -0.1510
     13    N      -64.2100  -80.5750  -13.9670 N.pl3   2  LIG2       -0.2952
     14    C      -63.4210  -79.6970  -13.0860 C.3     2  LIG2        0.0247
     15    C      -63.7490  -80.0580  -11.5990 C.3     2  LIG2       -0.0344
     16    C      -63.1170  -79.0630  -10.5840 C.3     2  LIG2       -0.0514
     17    C      -63.4910  -77.6080  -10.9260 C.3     2  LIG2       -0.0529
     18    C      -63.0880  -77.2470  -12.3830 C.3     2  LIG2       -0.0514
     19    C      -63.7540  -78.2170  -13.4000 C.3     2  LIG2       -0.0344
     20    H      -64.7110  -82.2860  -17.8460 H       2  LIG2        0.0266
     21    H      -64.8880  -83.6270  -18.9590 H       2  LIG2        0.0266
     22    H      -64.7430  -85.2530  -17.1260 H       2  LIG2        0.0301
     23    H      -65.9900  -84.0630  -16.7530 H       2  LIG2        0.0301
     24    H      -64.5850  -84.5020  -14.7610 H       2  LIG2        0.0754
     25    H      -62.4860  -85.1970  -15.8940 H       2  LIG2        0.0594
     26    H      -61.0410  -83.5310  -17.0310 H       2  LIG2        0.0285
     27    H      -62.0650  -82.2180  -16.5510 H       2  LIG2        0.0285
     28    H      -62.5390  -82.6110  -18.8760 H       2  LIG2        0.0266
     29    H      -62.5980  -84.3240  -18.6780 H       2  LIG2        0.0266
     30    H      -65.0900  -80.2310  -14.3230 H       2  LIG2        0.1507
     31    H      -62.3600  -79.8690  -13.2690 H       2  LIG2        0.0499
     32    H      -63.3950  -81.0670  -11.3850 H       2  LIG2        0.0283
     33    H      -64.8300  -80.0780  -11.4610 H       2  LIG2        0.0283
     34    H      -62.0330  -79.1710  -10.5960 H       2  LIG2        0.0266
     35    H      -63.4650  -79.3000   -9.5790 H       2  LIG2        0.0266
     36    H      -62.9900  -76.9330  -10.2320 H       2  LIG2        0.0265
     37    H      -64.5650  -77.4710  -10.8020 H       2  LIG2        0.0265
     38    H      -62.0040  -77.3020  -12.4840 H       2  LIG2        0.0266
     39    H      -63.3970  -76.2250  -12.6010 H       2  LIG2        0.0266
     40    H      -64.8350  -78.0770  -13.3800 H       2  LIG2        0.0283
     41    H      -63.4160  -77.9760  -14.4070 H       2  LIG2        0.0283
@<TRIPOS>BOND
     1    21     1    1
     2    28     6    1
     3    29     6    1
     4     6     1    1
     5     6     5    1
     6     1    20    1
     7     1     2    1
     8    22     2    1
     9    26     5    1
    10     2    23    1
    11     2     3    1
    12     5    27    1
    13     5     4    1
    14    25     4    1
    15     4     3    1
    16     4    10    1
    17     3     7    1
    18     3    24    1
    19     7     8    1
    20    41    19    1
    21    30    13    1
    22     8    13    1
    23     8     9    2
    24    12    10    2
    25    10     9    1
    26    10    11    2
    27    13    14    1
    28    19    40    1
    29    19    14    1
    30    19    18    1
    31    31    14    1
    32    14    15    1
    33    39    18    1
    34    38    18    1
    35    18    17    1
    36    15    33    1
    37    15    32    1
    38    15    16    1
    39    17    37    1
    40    17    16    1
    41    17    36    1
    42    34    16    1
    43    16    35    1
