# Top-energy pose of compounds ranked according to the score (given in kcal/mol).
@<TRIPOS>MOLECULE
2rbe_ligand_run_2.pdb
 30 31 0 0 0
SMALL
GASTEIGER

@<TRIPOS>ATOM
      1    C      -61.0130  -77.0350  -14.2370 C.ar    2  LIG2       -0.0598
      2    C      -60.2810  -77.0900  -13.0240 C.ar    2  LIG2       -0.0589
      3    C      -60.4950  -78.1360  -12.1050 C.ar    2  LIG2       -0.0246
      4    C      -61.4480  -79.1290  -12.4260 C.ar    2  LIG2        0.1445
      5    C      -62.2000  -79.0860  -13.6120 C.ar    2  LIG2        0.0683
      6    C      -61.9780  -78.0320  -14.5350 C.ar    2  LIG2       -0.0377
      7    N      -63.1370  -80.0370  -13.8720 N.pl3   2  LIG2       -0.2936
      8    C      -63.1360  -80.7920  -14.9810 C.2     2  LIG2        0.1514
      9    S      -64.3620  -82.0050  -15.3240 S.3     2  LIG2       -0.0797
     10    C      -63.5210  -82.5010  -16.8390 C.3     2  LIG2        0.0927
     11    C      -62.3080  -81.5900  -16.9690 C.2     2  LIG2        0.2518
     12    N      -62.1950  -80.7260  -15.9280 N.am    2  LIG2       -0.1581
     13    O      -61.5390  -81.6590  -17.9290 O.2     2  LIG2       -0.2724
     14    C      -63.0930  -83.9810  -16.9380 C.3     2  LIG2       -0.0260
     15    C      -62.2050  -84.4790  -15.8070 C.3     2  LIG2       -0.0612
     16    C      -64.3070  -84.8920  -17.0610 C.3     2  LIG2       -0.0612
     17    F      -61.6400  -80.1510  -11.5860 F       2  LIG2       -0.2035
     18    H      -60.8540  -76.2190  -14.9240 H       2  LIG2        0.0618
     19    H      -59.5580  -76.3190  -12.8010 H       2  LIG2        0.0618
     20    H      -59.9440  -78.1830  -11.1790 H       2  LIG2        0.0647
     21    H      -62.5410  -77.9840  -15.4540 H       2  LIG2        0.0637
     22    H      -63.5820  -80.4130  -13.0460 H       2  LIG2        0.1539
     23    H      -64.1890  -82.2590  -17.6660 H       2  LIG2        0.0514
     24    H      -62.5340  -84.1080  -17.8680 H       2  LIG2        0.0311
     25    H      -61.9240  -85.5230  -15.9570 H       2  LIG2        0.0233
     26    H      -61.2750  -83.9130  -15.7370 H       2  LIG2        0.0233
     27    H      -62.7030  -84.4130  -14.8390 H       2  LIG2        0.0233
     28    H      -64.0200  -85.8900  -17.3870 H       2  LIG2        0.0233
     29    H      -64.8190  -84.9930  -16.1030 H       2  LIG2        0.0233
     30    H      -65.0410  -84.4980  -17.7580 H       2  LIG2        0.0233
@<TRIPOS>BOND
     1    13    11    2
     2    24    14    1
     3    30    16    1
     4    23    10    1
     5    28    16    1
     6    16    14    1
     7    16    29    1
     8    11    10    1
     9    11    12    1
    10    14    10    1
    11    14    15    1
    12    10     9    1
    13    25    15    1
    14    12     8    2
    15    15    26    1
    16    15    27    1
    17    21     6    1
    18     9     8    1
    19     8     7    1
    20    18     1    1
    21     6     1   ar
    22     6     5   ar
    23     1     2   ar
    24     7     5    1
    25     7    22    1
    26     5     4   ar
    27     2    19    1
    28     2     3   ar
    29     4     3   ar
    30     4    17    1
    31     3    20    1
