@<TRIPOS>MOLECULE
2rbe_ligand_run_2.pdb
 30 31 0 0 0
SMALL
GASTEIGER

@<TRIPOS>ATOM
      1    C      -61.0130  -77.0350  -14.2370 C.ar    2  LIG2       -0.0598
      2    C      -60.2810  -77.0900  -13.0240 C.ar    2  LIG2       -0.0589
      3    C      -60.4950  -78.1360  -12.1050 C.ar    2  LIG2       -0.0246
      4    C      -61.4480  -79.1290  -12.4260 C.ar    2  LIG2        0.1445
      5    C      -62.2000  -79.0860  -13.6120 C.ar    2  LIG2        0.0683
      6    C      -61.9780  -78.0320  -14.5350 C.ar    2  LIG2       -0.0377
      7    N      -63.1370  -80.0370  -13.8720 N.pl3   2  LIG2       -0.2936
      8    C      -63.1360  -80.7920  -14.9810 C.2     2  LIG2        0.1514
      9    S      -64.3620  -82.0050  -15.3240 S.3     2  LIG2       -0.0797
     10    C      -63.5210  -82.5010  -16.8390 C.3     2  LIG2        0.0927
     11    C      -62.3080  -81.5900  -16.9690 C.2     2  LIG2        0.2518
     12    N      -62.1950  -80.7260  -15.9280 N.am    2  LIG2       -0.1581
     13    O      -61.5390  -81.6590  -17.9290 O.2     2  LIG2       -0.2724
     14    C      -63.0930  -83.9810  -16.9380 C.3     2  LIG2       -0.0260
     15    C      -62.2050  -84.4790  -15.8070 C.3     2  LIG2       -0.0612
     16    C      -64.3070  -84.8920  -17.0610 C.3     2  LIG2       -0.0612
     17    F      -61.6400  -80.1510  -11.5860 F       2  LIG2       -0.2035
     18    H      -60.8540  -76.2190  -14.9240 H       2  LIG2        0.0618
     19    H      -59.5580  -76.3190  -12.8010 H       2  LIG2        0.0618
     20    H      -59.9440  -78.1830  -11.1790 H       2  LIG2        0.0647
     21    H      -62.5410  -77.9840  -15.4540 H       2  LIG2        0.0637
     22    H      -63.5820  -80.4130  -13.0460 H       2  LIG2        0.1539
     23    H      -64.1890  -82.2590  -17.6660 H       2  LIG2        0.0514
     24    H      -62.5340  -84.1080  -17.8680 H       2  LIG2        0.0311
     25    H      -61.9240  -85.5230  -15.9570 H       2  LIG2        0.0233
     26    H      -61.2750  -83.9130  -15.7370 H       2  LIG2        0.0233
     27    H      -62.7030  -84.4130  -14.8390 H       2  LIG2        0.0233
     28    H      -64.0200  -85.8900  -17.3870 H       2  LIG2        0.0233
     29    H      -64.8190  -84.9930  -16.1030 H       2  LIG2        0.0233
     30    H      -65.0410  -84.4980  -17.7580 H       2  LIG2        0.0233
@<TRIPOS>BOND
     1    13    11    2
     2    24    14    1
     3    30    16    1
     4    23    10    1
     5    28    16    1
     6    16    14    1
     7    16    29    1
     8    11    10    1
     9    11    12    1
    10    14    10    1
    11    14    15    1
    12    10     9    1
    13    25    15    1
    14    12     8    2
    15    15    26    1
    16    15    27    1
    17    21     6    1
    18     9     8    1
    19     8     7    1
    20    18     1    1
    21     6     1   ar
    22     6     5   ar
    23     1     2   ar
    24     7     5    1
    25     7    22    1
    26     5     4   ar
    27     2    19    1
    28     2     3   ar
    29     4     3   ar
    30     4    17    1
    31     3    20    1
@<TRIPOS>MOLECULE
2rbe_ligand_run_8.pdb
 30 31 0 0 0
SMALL
GASTEIGER

@<TRIPOS>ATOM
      1    C      -62.3600  -85.1060  -17.1980 C.ar    2  LIG2       -0.0598
      2    C      -63.6570  -85.5350  -17.5760 C.ar    2  LIG2       -0.0589
      3    C      -64.7890  -85.1160  -16.8490 C.ar    2  LIG2       -0.0246
      4    C      -64.5990  -84.2550  -15.7440 C.ar    2  LIG2        0.1445
      5    C      -63.3210  -83.8330  -15.3380 C.ar    2  LIG2        0.0683
      6    C      -62.1860  -84.2560  -16.0760 C.ar    2  LIG2       -0.0377
      7    N      -63.1710  -83.0360  -14.2460 N.pl3   2  LIG2       -0.2936
      8    C      -62.4360  -81.9130  -14.2460 C.2     2  LIG2        0.1514
      9    S      -62.2000  -80.9140  -12.8200 S.3     2  LIG2       -0.0797
     10    C      -61.2480  -79.7060  -13.7590 C.3     2  LIG2        0.0927
     11    C      -61.1600  -80.2480  -15.1790 C.2     2  LIG2        0.2518
     12    N      -61.8290  -81.4200  -15.3300 N.am    2  LIG2       -0.1581
     13    O      -60.5390  -79.6590  -16.0650 O.2     2  LIG2       -0.2724
     14    C      -61.7870  -78.2600  -13.7690 C.3     2  LIG2       -0.0260
     15    C      -63.2360  -78.1070  -14.2100 C.3     2  LIG2       -0.0612
     16    C      -61.6050  -77.6010  -12.4080 C.3     2  LIG2       -0.0612
     17    F      -65.6620  -83.8160  -15.0630 F       2  LIG2       -0.2035
     18    H      -61.4980  -85.4490  -17.7510 H       2  LIG2        0.0618
     19    H      -63.7770  -86.1930  -18.4240 H       2  LIG2        0.0618
     20    H      -65.7790  -85.4400  -17.1280 H       2  LIG2        0.0647
     21    H      -61.1960  -83.9370  -15.7840 H       2  LIG2        0.0637
     22    H      -63.9280  -83.1040  -13.5790 H       2  LIG2        0.1539
     23    H      -60.2360  -79.7150  -13.3530 H       2  LIG2        0.0514
     24    H      -61.1750  -77.6780  -14.4620 H       2  LIG2        0.0311
     25    H      -63.5380  -77.0590  -14.2160 H       2  LIG2        0.0233
     26    H      -63.3970  -78.4840  -15.2210 H       2  LIG2        0.0233
     27    H      -63.9210  -78.6390  -13.5500 H       2  LIG2        0.0233
     28    H      -61.7380  -76.5230  -12.4710 H       2  LIG2        0.0233
     29    H      -62.3330  -77.9800  -11.6900 H       2  LIG2        0.0233
     30    H      -60.6260  -77.8060  -11.9860 H       2  LIG2        0.0233
@<TRIPOS>BOND
     1    19     2    1
     2    18     1    1
     3     2     1   ar
     4     2     3   ar
     5     1     6   ar
     6    20     3    1
     7     3     4   ar
     8     6    21    1
     9     6     5   ar
    10    13    11    2
    11     4     5   ar
    12     4    17    1
    13     5     7    1
    14    12    11    1
    15    12     8    2
    16    26    15    1
    17    11    10    1
    18    24    14    1
    19     7     8    1
    20     7    22    1
    21     8     9    1
    22    25    15    1
    23    15    14    1
    24    15    27    1
    25    14    10    1
    26    14    16    1
    27    10    23    1
    28    10     9    1
    29    28    16    1
    30    16    30    1
    31    16    29    1
@<TRIPOS>MOLECULE
2rbe_ligand_run_10.pdb
 30 31 0 0 0
SMALL
GASTEIGER

@<TRIPOS>ATOM
      1    C      -60.1980  -77.4180  -12.4830 C.ar    2  LIG2       -0.0598
      2    C      -60.4650  -76.0420  -12.2740 C.ar    2  LIG2       -0.0589
      3    C      -61.7480  -75.5150  -12.5220 C.ar    2  LIG2       -0.0246
      4    C      -62.7600  -76.3930  -12.9730 C.ar    2  LIG2        0.1445
      5    C      -62.5140  -77.7580  -13.2060 C.ar    2  LIG2        0.0683
      6    C      -61.2200  -78.2820  -12.9520 C.ar    2  LIG2       -0.0377
      7    N      -63.5000  -78.5680  -13.6780 N.pl3   2  LIG2       -0.2936
      8    C      -63.2820  -79.5740  -14.5370 C.2     2  LIG2        0.1514
      9    S      -64.2880  -81.0140  -14.6120 S.3     2  LIG2       -0.0797
     10    C      -63.2370  -81.7450  -15.8810 C.3     2  LIG2        0.0927
     11    C      -62.1540  -80.7170  -16.1790 C.2     2  LIG2        0.2518
     12    N      -62.2670  -79.6060  -15.4070 N.am    2  LIG2       -0.1581
     13    O      -61.2890  -80.9090  -17.0350 O.2     2  LIG2       -0.2724
     14    C      -62.6020  -83.1120  -15.5480 C.3     2  LIG2       -0.0260
     15    C      -61.7760  -83.1520  -14.2700 C.3     2  LIG2       -0.0612
     16    C      -63.6600  -84.2060  -15.4960 C.3     2  LIG2       -0.0612
     17    F      -63.9940  -75.9240  -13.1790 F       2  LIG2       -0.2035
     18    H      -59.2060  -77.8050  -12.3080 H       2  LIG2        0.0618
     19    H      -59.6750  -75.3900  -11.9290 H       2  LIG2        0.0618
     20    H      -61.9590  -74.4690  -12.3690 H       2  LIG2        0.0647
     21    H      -61.0140  -79.3280  -13.1190 H       2  LIG2        0.0637
     22    H      -64.3050  -78.6330  -13.0690 H       2  LIG2        0.1539
     23    H      -63.8440  -81.8360  -16.7820 H       2  LIG2        0.0514
     24    H      -61.9370  -83.3830  -16.3710 H       2  LIG2        0.0311
     25    H      -61.3400  -84.1400  -14.1130 H       2  LIG2        0.0233
     26    H      -60.9450  -82.4460  -14.2970 H       2  LIG2        0.0233
     27    H      -62.3760  -82.9190  -13.3900 H       2  LIG2        0.0233
     28    H      -63.2060  -85.1950  -15.5200 H       2  LIG2        0.0233
     29    H      -64.2490  -84.1370  -14.5810 H       2  LIG2        0.0233
     30    H      -64.3650  -84.1280  -16.3190 H       2  LIG2        0.0233
@<TRIPOS>BOND
     1    13    11    2
     2    23    10    1
     3    24    14    1
     4    30    16    1
     5    11    10    1
     6    11    12    1
     7    10    14    1
     8    10     9    1
     9    14    16    1
    10    14    15    1
    11    28    16    1
    12    16    29    1
    13    12     8    2
    14     9     8    1
    15     8     7    1
    16    26    15    1
    17    15    25    1
    18    15    27    1
    19     7     5    1
    20     7    22    1
    21     5     4   ar
    22     5     6   ar
    23    17     4    1
    24    21     6    1
    25     4     3   ar
    26     6     1   ar
    27     3    20    1
    28     3     2   ar
    29     1    18    1
    30     1     2   ar
    31     2    19    1
@<TRIPOS>MOLECULE
2rbe_ligand_run_24.pdb
 30 31 0 0 0
SMALL
GASTEIGER

@<TRIPOS>ATOM
      1    C      -63.7330  -83.1130  -17.7890 C.ar    2  LIG2       -0.0598
      2    C      -62.6930  -84.0570  -17.6010 C.ar    2  LIG2       -0.0589
      3    C      -61.9400  -84.0650  -16.4090 C.ar    2  LIG2       -0.0246
      4    C      -62.2550  -83.1180  -15.4080 C.ar    2  LIG2        0.1445
      5    C      -63.2690  -82.1590  -15.5800 C.ar    2  LIG2        0.0683
      6    C      -64.0240  -82.1590  -16.7810 C.ar    2  LIG2       -0.0377
      7    N      -63.5200  -81.2370  -14.6130 N.pl3   2  LIG2       -0.2936
      8    C      -62.5910  -80.3950  -14.1350 C.2     2  LIG2        0.1514
      9    S      -62.9480  -79.1150  -12.9840 S.3     2  LIG2       -0.0797
     10    C      -61.2440  -78.5290  -13.0280 C.3     2  LIG2        0.0927
     11    C      -60.4960  -79.4700  -13.9610 C.2     2  LIG2        0.2518
     12    N      -61.3040  -80.4190  -14.4990 N.am    2  LIG2       -0.1581
     13    O      -59.2890  -79.3520  -14.1790 O.2     2  LIG2       -0.2724
     14    C      -61.0300  -77.0620  -13.4590 C.3     2  LIG2       -0.0260
     15    C      -61.5250  -76.7150  -14.8560 C.3     2  LIG2       -0.0612
     16    C      -61.6510  -76.1020  -12.4530 C.3     2  LIG2       -0.0612
     17    F      -61.5790  -83.1310  -14.2560 F       2  LIG2       -0.2035
     18    H      -64.2900  -83.1040  -18.7130 H       2  LIG2        0.0618
     19    H      -62.4710  -84.7710  -18.3810 H       2  LIG2        0.0618
     20    H      -61.1450  -84.7780  -16.2600 H       2  LIG2        0.0647
     21    H      -64.8110  -81.4350  -16.9290 H       2  LIG2        0.0637
     22    H      -64.4880  -80.9510  -14.5580 H       2  LIG2        0.1539
     23    H      -60.8320  -78.6790  -12.0300 H       2  LIG2        0.0514
     24    H      -59.9570  -76.8590  -13.4370 H       2  LIG2        0.0311
     25    H      -61.3180  -75.6720  -15.1000 H       2  LIG2        0.0233
     26    H      -61.0390  -77.3170  -15.6240 H       2  LIG2        0.0233
     27    H      -62.6010  -76.8640  -14.9550 H       2  LIG2        0.0233
     28    H      -61.2900  -75.0860  -12.6040 H       2  LIG2        0.0233
     29    H      -62.7370  -76.0840  -12.5500 H       2  LIG2        0.0233
     30    H      -61.4420  -76.3970  -11.4290 H       2  LIG2        0.0233
@<TRIPOS>BOND
     1    18     1    1
     2    19     2    1
     3     1     2   ar
     4     1     6   ar
     5     2     3   ar
     6    21     6    1
     7     6     5   ar
     8     3    20    1
     9     3     4   ar
    10    26    15    1
    11     5     4   ar
    12     5     7    1
    13     4    17    1
    14    25    15    1
    15    27    15    1
    16    15    14    1
    17     7    22    1
    18     7     8    1
    19    12     8    2
    20    12    11    1
    21    13    11    2
    22     8     9    1
    23    11    10    1
    24    14    24    1
    25    14    10    1
    26    14    16    1
    27    10     9    1
    28    10    23    1
    29    28    16    1
    30    29    16    1
    31    16    30    1
@<TRIPOS>MOLECULE
2rbe_ligand_run_1.pdb
 30 31 0 0 0
SMALL
GASTEIGER

@<TRIPOS>ATOM
      1    C      -63.3680  -84.2020  -15.0850 C.ar    2  LIG2       -0.0598
      2    C      -62.5830  -84.6080  -16.1930 C.ar    2  LIG2       -0.0589
      3    C      -62.0520  -83.6520  -17.0820 C.ar    2  LIG2       -0.0246
      4    C      -62.3130  -82.2860  -16.8360 C.ar    2  LIG2        0.1445
      5    C      -63.1060  -81.8600  -15.7560 C.ar    2  LIG2        0.0683
      6    C      -63.6350  -82.8270  -14.8630 C.ar    2  LIG2       -0.0377
      7    N      -63.3710  -80.5390  -15.5700 N.pl3   2  LIG2       -0.2936
      8    C      -63.0490  -79.8700  -14.4530 C.2     2  LIG2        0.1514
      9    S      -63.2650  -78.1350  -14.2700 S.3     2  LIG2       -0.0797
     10    C      -62.5230  -78.1630  -12.6280 C.3     2  LIG2        0.0927
     11    C      -62.1920  -79.6200  -12.3370 C.2     2  LIG2        0.2518
     12    N      -62.5060  -80.4410  -13.3720 N.am    2  LIG2       -0.1581
     13    O      -61.6970  -79.9770  -11.2660 O.2     2  LIG2       -0.2724
     14    C      -61.2760  -77.2780  -12.4190 C.3     2  LIG2       -0.0260
     15    C      -60.1430  -77.5050  -13.4090 C.3     2  LIG2       -0.0612
     16    C      -61.6510  -75.8010  -12.4150 C.3     2  LIG2       -0.0612
     17    F      -61.7890  -81.3600  -17.6450 F       2  LIG2       -0.2035
     18    H      -63.7850  -84.9450  -14.4220 H       2  LIG2        0.0618
     19    H      -62.3960  -85.6590  -16.3600 H       2  LIG2        0.0618
     20    H      -61.4550  -83.9530  -17.9290 H       2  LIG2        0.0647
     21    H      -64.2410  -82.5200  -14.0230 H       2  LIG2        0.0637
     22    H      -63.4530  -80.0110  -16.4290 H       2  LIG2        0.1539
     23    H      -63.3020  -77.8680  -11.9230 H       2  LIG2        0.0514
     24    H      -60.8810  -77.4840  -11.4220 H       2  LIG2        0.0311
     25    H      -59.2890  -76.8640  -13.1850 H       2  LIG2        0.0233
     26    H      -59.7760  -78.5320  -13.3830 H       2  LIG2        0.0233
     27    H      -60.4480  -77.2920  -14.4340 H       2  LIG2        0.0233
     28    H      -60.8420  -75.1910  -12.0180 H       2  LIG2        0.0233
     29    H      -61.8630  -75.4490  -13.4250 H       2  LIG2        0.0233
     30    H      -62.5470  -75.6120  -11.8320 H       2  LIG2        0.0233
@<TRIPOS>BOND
     1    20     3    1
     2    17     4    1
     3     3     4   ar
     4     3     2   ar
     5     4     5   ar
     6    22     7    1
     7    19     2    1
     8     2     1   ar
     9     5     7    1
    10     5     6   ar
    11     7     8    1
    12     1     6   ar
    13     1    18    1
    14     6    21    1
    15     8     9    1
    16     8    12    2
    17    27    15    1
    18     9    10    1
    19    29    16    1
    20    15    26    1
    21    15    25    1
    22    15    14    1
    23    12    11    1
    24    10    14    1
    25    10    11    1
    26    10    23    1
    27    14    16    1
    28    14    24    1
    29    16    28    1
    30    16    30    1
    31    11    13    2
@<TRIPOS>MOLECULE
2rbe_ligand_run_5.pdb
 30 31 0 0 0
SMALL
GASTEIGER

@<TRIPOS>ATOM
      1    C      -60.8410  -79.5710  -12.4500 C.ar    2  LIG2       -0.0598
      2    C      -60.8130  -78.3920  -13.2350 C.ar    2  LIG2       -0.0589
      3    C      -61.6750  -78.2460  -14.3400 C.ar    2  LIG2       -0.0246
      4    C      -62.5720  -79.2970  -14.6370 C.ar    2  LIG2        0.1445
      5    C      -62.6050  -80.4840  -13.8850 C.ar    2  LIG2        0.0683
      6    C      -61.7360  -80.6240  -12.7730 C.ar    2  LIG2       -0.0377
      7    N      -63.4530  -81.4930  -14.2220 N.pl3   2  LIG2       -0.2936
      8    C      -63.4850  -82.0560  -15.4390 C.2     2  LIG2        0.1514
      9    S      -64.5410  -83.3990  -15.8540 S.3     2  LIG2       -0.0797
     10    C      -63.8480  -83.4990  -17.5150 C.3     2  LIG2        0.0927
     11    C      -62.8220  -82.3780  -17.6150 C.2     2  LIG2        0.2518
     12    N      -62.7040  -81.6780  -16.4570 N.am    2  LIG2       -0.1581
     13    O      -62.1900  -82.1610  -18.6490 O.2     2  LIG2       -0.2724
     14    C      -63.2110  -84.8460  -17.9170 C.3     2  LIG2       -0.0260
     15    C      -62.0250  -85.2840  -17.0710 C.3     2  LIG2       -0.0612
     16    C      -64.2530  -85.9570  -17.9350 C.3     2  LIG2       -0.0612
     17    F      -63.4250  -79.1640  -15.6570 F       2  LIG2       -0.2035
     18    H      -60.1620  -79.6800  -11.6180 H       2  LIG2        0.0618
     19    H      -60.1180  -77.6010  -12.9880 H       2  LIG2        0.0618
     20    H      -61.6580  -77.3520  -14.9440 H       2  LIG2        0.0647
     21    H      -61.7500  -81.5260  -12.1790 H       2  LIG2        0.0637
     22    H      -63.7630  -82.0500  -13.4370 H       2  LIG2        0.1539
     23    H      -64.6520  -83.2540  -18.2090 H       2  LIG2        0.0514
     24    H      -62.8590  -84.7570  -18.9470 H       2  LIG2        0.0311
     25    H      -61.6130  -86.2290  -17.4290 H       2  LIG2        0.0233
     26    H      -61.2100  -84.5590  -17.1010 H       2  LIG2        0.0233
     27    H      -62.2990  -85.4250  -16.0250 H       2  LIG2        0.0233
     28    H      -63.8820  -86.8370  -18.4560 H       2  LIG2        0.0233
     29    H      -64.5150  -86.2630  -16.9210 H       2  LIG2        0.0233
     30    H      -65.1780  -85.6390  -18.4050 H       2  LIG2        0.0233
@<TRIPOS>BOND
     1    24    14    1
     2    13    11    2
     3    28    16    1
     4    30    16    1
     5    23    10    1
     6    16    14    1
     7    16    29    1
     8    14    10    1
     9    14    15    1
    10    11    10    1
    11    11    12    1
    12    10     9    1
    13    25    15    1
    14    26    15    1
    15    15    27    1
    16    12     8    2
    17     9     8    1
    18    17     4    1
    19     8     7    1
    20    20     3    1
    21     4     3   ar
    22     4     5   ar
    23     3     2   ar
    24     7     5    1
    25     7    22    1
    26     5     6   ar
    27     2    19    1
    28     2     1   ar
    29     6     1   ar
    30     6    21    1
    31     1    18    1
@<TRIPOS>MOLECULE
2rbe_ligand_run_14.pdb
 30 31 0 0 0
SMALL
GASTEIGER

@<TRIPOS>ATOM
      1    C      -60.9640  -79.5600  -12.1970 C.ar    2  LIG2       -0.0598
      2    C      -61.7940  -78.4380  -11.9490 C.ar    2  LIG2       -0.0589
      3    C      -62.6650  -77.9570  -12.9480 C.ar    2  LIG2       -0.0246
      4    C      -62.6940  -78.6250  -14.1930 C.ar    2  LIG2        0.1445
      5    C      -61.8660  -79.7270  -14.4690 C.ar    2  LIG2        0.0683
      6    C      -60.9940  -80.2070  -13.4580 C.ar    2  LIG2       -0.0377
      7    N      -61.8910  -80.3220  -15.6910 N.pl3   2  LIG2       -0.2936
      8    C      -61.9520  -81.6510  -15.8650 C.2     2  LIG2        0.1514
      9    S      -62.2180  -82.4090  -17.4290 S.3     2  LIG2       -0.0797
     10    C      -62.2360  -84.0520  -16.6880 C.3     2  LIG2        0.0927
     11    C      -61.9750  -83.8500  -15.2020 C.2     2  LIG2        0.2518
     12    N      -61.8450  -82.5390  -14.8710 N.am    2  LIG2       -0.1581
     13    O      -61.8950  -84.7970  -14.4180 O.2     2  LIG2       -0.2724
     14    C      -63.5160  -84.8890  -16.8990 C.3     2  LIG2       -0.0260
     15    C      -64.7940  -84.2770  -16.3430 C.3     2  LIG2       -0.0612
     16    C      -63.7160  -85.2180  -18.3730 C.3     2  LIG2       -0.0612
     17    F      -63.5390  -78.2090  -15.1420 F       2  LIG2       -0.2035
     18    H      -60.2880  -79.9070  -11.4310 H       2  LIG2        0.0618
     19    H      -61.7540  -77.9440  -10.9890 H       2  LIG2        0.0618
     20    H      -63.2980  -77.1030  -12.7690 H       2  LIG2        0.0647
     21    H      -60.3550  -81.0560  -13.6480 H       2  LIG2        0.0637
     22    H      -62.2540  -79.7330  -16.4290 H       2  LIG2        0.1539
     23    H      -61.3780  -84.5910  -17.0910 H       2  LIG2        0.0514
     24    H      -63.3740  -85.8500  -16.3990 H       2  LIG2        0.0311
     25    H      -65.6490  -84.9350  -16.5070 H       2  LIG2        0.0233
     26    H      -64.7330  -84.1080  -15.2680 H       2  LIG2        0.0233
     27    H      -65.0250  -83.3210  -16.8130 H       2  LIG2        0.0233
     28    H      -64.4520  -86.0080  -18.5040 H       2  LIG2        0.0233
     29    H      -64.0690  -84.3450  -18.9230 H       2  LIG2        0.0233
     30    H      -62.7890  -85.5230  -18.8490 H       2  LIG2        0.0233
@<TRIPOS>BOND
     1    29    16    1
     2    30    16    1
     3    28    16    1
     4    16    14    1
     5     9    10    1
     6     9     8    1
     7    23    10    1
     8    14    10    1
     9    14    24    1
    10    14    15    1
    11    27    15    1
    12    10    11    1
    13    25    15    1
    14    22     7    1
    15    15    26    1
    16     8     7    1
    17     8    12    2
    18     7     5    1
    19    11    12    1
    20    11    13    2
    21    17     4    1
    22     5     4   ar
    23     5     6   ar
    24     4     3   ar
    25    21     6    1
    26     6     1   ar
    27     3    20    1
    28     3     2   ar
    29     1     2   ar
    30     1    18    1
    31     2    19    1
@<TRIPOS>MOLECULE
2rbe_ligand_run_3.pdb
 30 31 0 0 0
SMALL
GASTEIGER

@<TRIPOS>ATOM
      1    C      -63.4010  -78.6650  -13.3550 C.ar    2  LIG2       -0.0598
      2    C      -62.6630  -77.6270  -13.9770 C.ar    2  LIG2       -0.0589
      3    C      -61.5940  -77.9280  -14.8430 C.ar    2  LIG2       -0.0246
      4    C      -61.2840  -79.2860  -15.0830 C.ar    2  LIG2        0.1445
      5    C      -61.9880  -80.3330  -14.4620 C.ar    2  LIG2        0.0683
      6    C      -63.0660  -80.0220  -13.5930 C.ar    2  LIG2       -0.0377
      7    N      -61.6390  -81.6290  -14.6840 N.pl3   2  LIG2       -0.2936
      8    C      -62.4960  -82.5600  -15.1290 C.2     2  LIG2        0.1514
      9    S      -61.9830  -84.0790  -15.8490 S.3     2  LIG2       -0.0797
     10    C      -63.6880  -84.5570  -16.1830 C.3     2  LIG2        0.0927
     11    C      -64.5590  -83.4370  -15.6310 C.2     2  LIG2        0.2518
     12    N      -63.8260  -82.4240  -15.0990 N.am    2  LIG2       -0.1581
     13    O      -65.7890  -83.4810  -15.6780 O.2     2  LIG2       -0.2724
     14    C      -64.0490  -84.8390  -17.6580 C.3     2  LIG2       -0.0260
     15    C      -63.7640  -83.7010  -18.6270 C.3     2  LIG2       -0.0612
     16    C      -63.3630  -86.1050  -18.1540 C.3     2  LIG2       -0.0612
     17    F      -60.2980  -79.5960  -15.9300 F       2  LIG2       -0.2035
     18    H      -64.2060  -78.4210  -12.6780 H       2  LIG2        0.0618
     19    H      -62.9190  -76.5960  -13.7780 H       2  LIG2        0.0618
     20    H      -61.0260  -77.1440  -15.3180 H       2  LIG2        0.0647
     21    H      -63.6230  -80.8120  -13.1120 H       2  LIG2        0.0637
     22    H      -60.6550  -81.7620  -14.8770 H       2  LIG2        0.1539
     23    H      -63.8930  -85.4430  -15.5820 H       2  LIG2        0.0514
     24    H      -65.1200  -85.0460  -17.7070 H       2  LIG2        0.0311
     25    H      -64.0670  -83.9630  -19.6420 H       2  LIG2        0.0233
     26    H      -64.3090  -82.7930  -18.3640 H       2  LIG2        0.0233
     27    H      -62.7040  -83.4490  -18.6590 H       2  LIG2        0.0233
     28    H      -63.8030  -86.4520  -19.0870 H       2  LIG2        0.0233
     29    H      -62.3020  -85.9280  -18.3360 H       2  LIG2        0.0233
     30    H      -63.4160  -86.9080  -17.4240 H       2  LIG2        0.0233
@<TRIPOS>BOND
     1    25    15    1
     2    28    16    1
     3    27    15    1
     4    15    26    1
     5    15    14    1
     6    29    16    1
     7    16    14    1
     8    16    30    1
     9    24    14    1
    10    14    10    1
    11    10     9    1
    12    10    11    1
    13    10    23    1
    14    17     4    1
    15     9     8    1
    16    13    11    2
    17    11    12    1
    18    20     3    1
    19     8    12    2
    20     8     7    1
    21     4     3   ar
    22     4     5   ar
    23    22     7    1
    24     3     2   ar
    25     7     5    1
    26     5     6   ar
    27     2    19    1
    28     2     1   ar
    29     6     1   ar
    30     6    21    1
    31     1    18    1
@<TRIPOS>MOLECULE
2rbe_ligand_run_19.pdb
 30 31 0 0 0
SMALL
GASTEIGER

@<TRIPOS>ATOM
      1    C      -61.5350  -77.6910  -14.7200 C.ar    2  LIG2       -0.0598
      2    C      -60.9730  -76.9670  -13.6380 C.ar    2  LIG2       -0.0589
      3    C      -60.4740  -77.6430  -12.5070 C.ar    2  LIG2       -0.0246
      4    C      -60.5400  -79.0550  -12.4830 C.ar    2  LIG2        0.1445
      5    C      -61.1120  -79.7930  -13.5350 C.ar    2  LIG2        0.0683
      6    C      -61.6100  -79.1060  -14.6720 C.ar    2  LIG2       -0.0377
      7    N      -61.1950  -81.1480  -13.4620 N.pl3   2  LIG2       -0.2936
      8    C      -62.0990  -81.8710  -14.1420 C.2     2  LIG2        0.1514
      9    S      -61.7610  -83.4620  -14.8070 S.3     2  LIG2       -0.0797
     10    C      -63.4010  -83.5590  -15.5480 C.3     2  LIG2        0.0927
     11    C      -64.1230  -82.2790  -15.1480 C.2     2  LIG2        0.2518
     12    N      -63.3400  -81.4510  -14.4090 N.am    2  LIG2       -0.1581
     13    O      -65.2890  -82.0570  -15.4770 O.2     2  LIG2       -0.2724
     14    C      -63.4560  -83.7500  -17.0790 C.3     2  LIG2       -0.0260
     15    C      -62.6970  -82.7120  -17.8930 C.3     2  LIG2       -0.0612
     16    C      -62.9800  -85.1420  -17.4710 C.3     2  LIG2       -0.0612
     17    F      -60.0390  -79.7190  -11.4370 F       2  LIG2       -0.2035
     18    H      -61.9320  -77.1600  -15.5720 H       2  LIG2        0.0618
     19    H      -60.9330  -75.8880  -13.6790 H       2  LIG2        0.0618
     20    H      -60.0470  -77.1000  -11.6790 H       2  LIG2        0.0647
     21    H      -62.0470  -79.6550  -15.4920 H       2  LIG2        0.0637
     22    H      -60.3290  -81.6010  -13.2030 H       2  LIG2        0.1539
     23    H      -63.9220  -84.3820  -15.0590 H       2  LIG2        0.0514
     24    H      -64.5030  -83.6990  -17.3860 H       2  LIG2        0.0311
     25    H      -62.8010  -82.8970  -18.9630 H       2  LIG2        0.0233
     26    H      -63.0650  -81.7010  -17.7140 H       2  LIG2        0.0233
     27    H      -61.6300  -82.7170  -17.6660 H       2  LIG2        0.0233
     28    H      -63.2540  -85.3770  -18.4980 H       2  LIG2        0.0233
     29    H      -61.8950  -85.2210  -17.3940 H       2  LIG2        0.0233
     30    H      -63.3880  -85.9090  -16.8190 H       2  LIG2        0.0233
@<TRIPOS>BOND
     1    25    15    1
     2    28    16    1
     3    15    26    1
     4    15    27    1
     5    15    14    1
     6    16    29    1
     7    16    14    1
     8    16    30    1
     9    24    14    1
    10    14    10    1
    11    18     1    1
    12    10    11    1
    13    10    23    1
    14    10     9    1
    15    21     6    1
    16    13    11    2
    17    11    12    1
    18     9     8    1
    19     1     6   ar
    20     1     2   ar
    21     6     5   ar
    22    12     8    2
    23     8     7    1
    24    19     2    1
    25     2     3   ar
    26     5     7    1
    27     5     4   ar
    28     7    22    1
    29     3     4   ar
    30     3    20    1
    31     4    17    1
@<TRIPOS>MOLECULE
2rbe_ligand_run_3.pdb
 30 31 0 0 0
SMALL
GASTEIGER

@<TRIPOS>ATOM
      1    C      -65.3980  -87.7930  -17.6790 C.ar    2  LIG2       -0.0598
      2    C      -64.8530  -88.7770  -18.5410 C.ar    2  LIG2       -0.0589
      3    C      -63.9440  -88.4160  -19.5550 C.ar    2  LIG2       -0.0246
      4    C      -63.5840  -87.0560  -19.6830 C.ar    2  LIG2        0.1445
      5    C      -64.1260  -86.0590  -18.8530 C.ar    2  LIG2        0.0683
      6    C      -65.0390  -86.4290  -17.8330 C.ar    2  LIG2       -0.0377
      7    N      -63.7880  -84.7540  -19.0290 N.pl3   2  LIG2       -0.2936
      8    C      -63.0600  -84.0530  -18.1460 C.2     2  LIG2        0.1514
      9    S      -62.6870  -84.6300  -16.5280 S.3     2  LIG2       -0.0797
     10    C      -61.8360  -83.0940  -16.1200 C.3     2  LIG2        0.0927
     11    C      -61.8870  -82.2350  -17.3760 C.2     2  LIG2        0.2518
     12    N      -62.5640  -82.8350  -18.3880 N.am    2  LIG2       -0.1581
     13    O      -61.3580  -81.1240  -17.4290 O.2     2  LIG2       -0.2724
     14    C      -62.3770  -82.3060  -14.9080 C.3     2  LIG2       -0.0260
     15    C      -63.8530  -81.9420  -14.9750 C.3     2  LIG2       -0.0612
     16    C      -62.1020  -83.0500  -13.6080 C.3     2  LIG2       -0.0612
     17    F      -62.6940  -86.6960  -20.6140 F       2  LIG2       -0.2035
     18    H      -66.1090  -88.0790  -16.9180 H       2  LIG2        0.0618
     19    H      -65.1440  -89.8110  -18.4230 H       2  LIG2        0.0618
     20    H      -63.5270  -89.1590  -20.2170 H       2  LIG2        0.0647
     21    H      -65.4620  -85.6790  -17.1810 H       2  LIG2        0.0637
     22    H      -63.7640  -84.4610  -19.9970 H       2  LIG2        0.1539
     23    H      -60.7890  -83.3480  -15.9510 H       2  LIG2        0.0514
     24    H      -61.8170  -81.3710  -14.8380 H       2  LIG2        0.0311
     25    H      -64.1580  -81.3660  -14.0990 H       2  LIG2        0.0233
     26    H      -64.0850  -81.3280  -15.8470 H       2  LIG2        0.0233
     27    H      -64.4900  -82.8260  -15.0200 H       2  LIG2        0.0233
     28    H      -62.2420  -82.4000  -12.7460 H       2  LIG2        0.0233
     29    H      -62.7780  -83.8980  -13.4920 H       2  LIG2        0.0233
     30    H      -61.0960  -83.4560  -13.5780 H       2  LIG2        0.0233
@<TRIPOS>BOND
     1    17     4    1
     2    20     3    1
     3    22     7    1
     4     4     3   ar
     5     4     5   ar
     6     3     2   ar
     7     7     5    1
     8     7     8    1
     9     5     6   ar
    10     2    19    1
    11     2     1   ar
    12    12     8    2
    13    12    11    1
    14     8     9    1
    15     6     1   ar
    16     6    21    1
    17     1    18    1
    18    13    11    2
    19    11    10    1
    20     9    10    1
    21    10    23    1
    22    10    14    1
    23    26    15    1
    24    27    15    1
    25    15    14    1
    26    15    25    1
    27    14    24    1
    28    14    16    1
    29    16    30    1
    30    16    29    1
    31    16    28    1
