# Top-energy pose of compounds ranked according to the score (given in kcal/mol).
@<TRIPOS>MOLECULE
8e1a_ligand_run_12.pdb
 35 37 0 0 0
SMALL
GASTEIGER

@<TRIPOS>ATOM
      1    C       24.2470    5.5110    3.8320 C.ar    2  LIG2        0.1654
      2    C       25.5720    5.1210    3.9160 C.ar    2  LIG2        0.1642
      3    C       26.6190    7.3040    3.9290 C.3     2  LIG2        0.0789
      4    C       23.1590    4.7620    4.1070 C.ar    2  LIG2       -0.0228
      5    C       23.3470    3.4570    4.5270 C.ar    2  LIG2       -0.0582
      6    C       24.6380    2.9850    4.6830 C.ar    2  LIG2       -0.0489
      7    C       25.7950    3.7550    4.3670 C.ar    2  LIG2        0.0454
      8    C       27.1390    3.1920    4.5550 C.ar    2  LIG2        0.0838
      9    C       28.3660    1.4450    4.8940 C.ar    2  LIG2        0.1614
     10    C       28.3520    3.7920    4.5690 C.ar    2  LIG2        0.0050
     11    C       30.2060   -0.3890    5.1550 C.3     2  LIG2        0.0375
     12    C       30.3480   -1.3300    4.0380 C.3     2  LIG2        0.0634
     13    C       27.9990   -1.8570    3.9220 C.3     2  LIG2        0.0634
     14    C       27.7370   -0.9420    5.0680 C.3     2  LIG2        0.0375
     15    N       27.1590    1.8190    4.7690 N.ar    2  LIG2       -0.2247
     16    N       28.7520    0.1000    5.1160 N.pl3   2  LIG2       -0.3052
     17    O       26.6850    5.8890    3.6060 O.3     2  LIG2       -0.4916
     18    O       29.3590   -2.4040    4.1050 O.3     2  LIG2       -0.3767
     19    S       29.6400    2.6510    4.8550 S.2     2  LIG2       -0.0601
     20    F       24.1160    6.8030    3.3330 F       2  LIG2       -0.2016
     21    H       27.6020    7.6100    4.2790 H       2  LIG2        0.0660
     22    H       26.3490    7.9000    3.0600 H       2  LIG2        0.0660
     23    H       25.9150    7.5290    4.7320 H       2  LIG2        0.0660
     24    H       22.1650    5.1590    3.9850 H       2  LIG2        0.0647
     25    H       22.5000    2.8300    4.7590 H       2  LIG2        0.0619
     26    H       24.7280    1.9720    5.0470 H       2  LIG2        0.0625
     27    H       28.6020    4.8350    4.4480 H       2  LIG2        0.0716
     28    H       30.9260    0.4180    5.1050 H       2  LIG2        0.0487
     29    H       30.3880   -0.8770    6.1120 H       2  LIG2        0.0487
     30    H       31.3360   -1.7910    4.0710 H       2  LIG2        0.0575
     31    H       30.2890   -0.8130    3.0770 H       2  LIG2        0.0575
     32    H       27.9070   -1.3410    2.9650 H       2  LIG2        0.0575
     33    H       27.2740   -2.6710    3.9290 H       2  LIG2        0.0575
     34    H       27.7210   -1.4730    6.0170 H       2  LIG2        0.0487
     35    H       26.7260   -0.5500    4.9680 H       2  LIG2        0.0487
@<TRIPOS>BOND
     1    32    13    1
     2    22     3    1
     3    31    12    1
     4    20     1    1
     5    17     2    1
     6    17     3    1
     7     1     2   ar
     8     1     4   ar
     9     2     7   ar
    10    13    33    1
    11    13    18    1
    12    13    14    1
    13     3    21    1
    14     3    23    1
    15    24     4    1
    16    12    30    1
    17    12    18    1
    18    12    11    1
    19     4     5   ar
    20     7     8    1
    21     7     6   ar
    22    27    10    1
    23     5     6   ar
    24     5    25    1
    25     8    10   ar
    26     8    15   ar
    27    10    19   ar
    28     6    26    1
    29    15     9   ar
    30    19     9   ar
    31     9    16    1
    32    35    14    1
    33    14    16    1
    34    14    34    1
    35    28    11    1
    36    16    11    1
    37    11    29    1
