@<TRIPOS>MOLECULE
8e1a_ligand_run_12.pdb
 35 37 0 0 0
SMALL
GASTEIGER

@<TRIPOS>ATOM
      1    C       24.2470    5.5110    3.8320 C.ar    2  LIG2        0.1654
      2    C       25.5720    5.1210    3.9160 C.ar    2  LIG2        0.1642
      3    C       26.6190    7.3040    3.9290 C.3     2  LIG2        0.0789
      4    C       23.1590    4.7620    4.1070 C.ar    2  LIG2       -0.0228
      5    C       23.3470    3.4570    4.5270 C.ar    2  LIG2       -0.0582
      6    C       24.6380    2.9850    4.6830 C.ar    2  LIG2       -0.0489
      7    C       25.7950    3.7550    4.3670 C.ar    2  LIG2        0.0454
      8    C       27.1390    3.1920    4.5550 C.ar    2  LIG2        0.0838
      9    C       28.3660    1.4450    4.8940 C.ar    2  LIG2        0.1614
     10    C       28.3520    3.7920    4.5690 C.ar    2  LIG2        0.0050
     11    C       30.2060   -0.3890    5.1550 C.3     2  LIG2        0.0375
     12    C       30.3480   -1.3300    4.0380 C.3     2  LIG2        0.0634
     13    C       27.9990   -1.8570    3.9220 C.3     2  LIG2        0.0634
     14    C       27.7370   -0.9420    5.0680 C.3     2  LIG2        0.0375
     15    N       27.1590    1.8190    4.7690 N.ar    2  LIG2       -0.2247
     16    N       28.7520    0.1000    5.1160 N.pl3   2  LIG2       -0.3052
     17    O       26.6850    5.8890    3.6060 O.3     2  LIG2       -0.4916
     18    O       29.3590   -2.4040    4.1050 O.3     2  LIG2       -0.3767
     19    S       29.6400    2.6510    4.8550 S.2     2  LIG2       -0.0601
     20    F       24.1160    6.8030    3.3330 F       2  LIG2       -0.2016
     21    H       27.6020    7.6100    4.2790 H       2  LIG2        0.0660
     22    H       26.3490    7.9000    3.0600 H       2  LIG2        0.0660
     23    H       25.9150    7.5290    4.7320 H       2  LIG2        0.0660
     24    H       22.1650    5.1590    3.9850 H       2  LIG2        0.0647
     25    H       22.5000    2.8300    4.7590 H       2  LIG2        0.0619
     26    H       24.7280    1.9720    5.0470 H       2  LIG2        0.0625
     27    H       28.6020    4.8350    4.4480 H       2  LIG2        0.0716
     28    H       30.9260    0.4180    5.1050 H       2  LIG2        0.0487
     29    H       30.3880   -0.8770    6.1120 H       2  LIG2        0.0487
     30    H       31.3360   -1.7910    4.0710 H       2  LIG2        0.0575
     31    H       30.2890   -0.8130    3.0770 H       2  LIG2        0.0575
     32    H       27.9070   -1.3410    2.9650 H       2  LIG2        0.0575
     33    H       27.2740   -2.6710    3.9290 H       2  LIG2        0.0575
     34    H       27.7210   -1.4730    6.0170 H       2  LIG2        0.0487
     35    H       26.7260   -0.5500    4.9680 H       2  LIG2        0.0487
@<TRIPOS>BOND
     1    32    13    1
     2    22     3    1
     3    31    12    1
     4    20     1    1
     5    17     2    1
     6    17     3    1
     7     1     2   ar
     8     1     4   ar
     9     2     7   ar
    10    13    33    1
    11    13    18    1
    12    13    14    1
    13     3    21    1
    14     3    23    1
    15    24     4    1
    16    12    30    1
    17    12    18    1
    18    12    11    1
    19     4     5   ar
    20     7     8    1
    21     7     6   ar
    22    27    10    1
    23     5     6   ar
    24     5    25    1
    25     8    10   ar
    26     8    15   ar
    27    10    19   ar
    28     6    26    1
    29    15     9   ar
    30    19     9   ar
    31     9    16    1
    32    35    14    1
    33    14    16    1
    34    14    34    1
    35    28    11    1
    36    16    11    1
    37    11    29    1
@<TRIPOS>MOLECULE
8e1a_ligand_run_21.pdb
 35 37 0 0 0
SMALL
GASTEIGER

@<TRIPOS>ATOM
      1    C       24.0380    4.1100    3.8680 C.ar    2  LIG2        0.1654
      2    C       25.1270    3.2940    4.1210 C.ar    2  LIG2        0.1642
      3    C       24.5600    1.1430    3.1640 C.3     2  LIG2        0.0789
      4    C       24.0370    5.4540    3.7530 C.ar    2  LIG2       -0.0228
      5    C       25.2380    6.1280    3.8910 C.ar    2  LIG2       -0.0582
      6    C       26.3930    5.3960    4.1050 C.ar    2  LIG2       -0.0489
      7    C       26.4040    3.9790    4.2600 C.ar    2  LIG2        0.0454
      8    C       27.6660    3.2640    4.4860 C.ar    2  LIG2        0.0838
      9    C       28.6710    1.3880    4.8610 C.ar    2  LIG2        0.1614
     10    C       28.9400    3.7190    4.5320 C.ar    2  LIG2        0.0050
     11    C       30.2770   -0.6490    5.1650 C.3     2  LIG2        0.0375
     12    C       30.3280   -1.6070    4.0540 C.3     2  LIG2        0.0634
     13    C       27.9360   -1.8530    3.8930 C.3     2  LIG2        0.0634
     14    C       27.7620   -0.9080    5.0300 C.3     2  LIG2        0.0375
     15    N       27.5200    1.9000    4.7020 N.ar    2  LIG2       -0.2247
     16    N       28.8920    0.0080    5.0950 N.pl3   2  LIG2       -0.3052
     17    O       25.1140    1.9150    4.2640 O.3     2  LIG2       -0.4916
     18    O       29.2180   -2.5560    4.1050 O.3     2  LIG2       -0.3767
     19    S       30.0780    2.4370    4.8550 S.2     2  LIG2       -0.0601
     20    F       22.8490    3.3900    3.8140 F       2  LIG2       -0.2016
     21    H       25.1600    0.2420    3.0570 H       2  LIG2        0.0660
     22    H       23.5260    0.8630    3.3550 H       2  LIG2        0.0660
     23    H       24.6030    1.6660    2.2080 H       2  LIG2        0.0660
     24    H       23.1230    5.9980    3.5770 H       2  LIG2        0.0647
     25    H       25.2760    7.2030    3.8020 H       2  LIG2        0.0619
     26    H       27.3070    5.9680    4.1700 H       2  LIG2        0.0625
     27    H       29.3140    4.7250    4.4160 H       2  LIG2        0.0716
     28    H       31.0880    0.0670    5.1270 H       2  LIG2        0.0487
     29    H       30.3810   -1.1490    6.1280 H       2  LIG2        0.0487
     30    H       31.2540   -2.1810    4.1090 H       2  LIG2        0.0575
     31    H       30.3490   -1.0920    3.0910 H       2  LIG2        0.0575
     32    H       27.9240   -1.3360    2.9320 H       2  LIG2        0.0575
     33    H       27.1200   -2.5760    3.8880 H       2  LIG2        0.0575
     34    H       27.6650   -1.4270    5.9810 H       2  LIG2        0.0487
     35    H       26.8060   -0.4000    4.9090 H       2  LIG2        0.0487
@<TRIPOS>BOND
     1    23     3    1
     2    32    13    1
     3    21     3    1
     4    31    12    1
     5     3    22    1
     6     3    17    1
     7    24     4    1
     8     4     1   ar
     9     4     5   ar
    10    25     5    1
    11    20     1    1
    12     1     2   ar
    13    33    13    1
    14     5     6   ar
    15    13    18    1
    16    13    14    1
    17    12    18    1
    18    12    30    1
    19    12    11    1
    20     6    26    1
    21     6     7   ar
    22     2     7   ar
    23     2    17    1
    24     7     8    1
    25    27    10    1
    26     8    10   ar
    27     8    15   ar
    28    10    19   ar
    29    15     9   ar
    30    19     9   ar
    31     9    16    1
    32    35    14    1
    33    14    16    1
    34    14    34    1
    35    16    11    1
    36    28    11    1
    37    11    29    1
@<TRIPOS>MOLECULE
8e1a_ligand_run_6.pdb
 35 37 0 0 0
SMALL
GASTEIGER

@<TRIPOS>ATOM
      1    C       24.9220    6.6640    4.1600 C.ar    2  LIG2        0.1654
      2    C       24.9420    5.2800    4.1850 C.ar    2  LIG2        0.1642
      3    C       22.6210    4.8070    3.6830 C.3     2  LIG2        0.0789
      4    C       25.9780    7.4910    4.0190 C.ar    2  LIG2       -0.0228
      5    C       27.2360    6.9330    3.8730 C.ar    2  LIG2       -0.0582
      6    C       27.3560    5.5550    3.8430 C.ar    2  LIG2       -0.0489
      7    C       26.2530    4.6700    4.0220 C.ar    2  LIG2        0.0454
      8    C       26.4510    3.2160    3.9790 C.ar    2  LIG2        0.0838
      9    C       27.8150    1.5440    4.1050 C.ar    2  LIG2        0.1614
     10    C       25.5630    2.2110    3.7960 C.ar    2  LIG2        0.0050
     11    C       29.2620   -0.5670    3.5850 C.3     2  LIG2        0.0375
     12    C       29.4330   -1.5240    4.6850 C.3     2  LIG2        0.0634
     13    C       30.0990    0.1410    6.2960 C.3     2  LIG2        0.0634
     14    C       29.9800    1.1970    5.2530 C.3     2  LIG2        0.0375
     15    N       27.7710    2.8130    4.1360 N.ar    2  LIG2       -0.2247
     16    N       29.0110    0.7960    4.2440 N.pl3   2  LIG2       -0.3052
     17    O       23.8530    4.4380    4.3580 O.3     2  LIG2       -0.4916
     18    O       30.4880   -1.1070    5.6060 O.3     2  LIG2       -0.3767
     19    S       26.3360    0.6470    3.8130 S.2     2  LIG2       -0.0601
     20    F       23.6460    7.1700    4.3870 F       2  LIG2       -0.2016
     21    H       22.1510    3.8930    3.3270 H       2  LIG2        0.0660
     22    H       21.9370    5.3210    4.3550 H       2  LIG2        0.0660
     23    H       22.7820    5.4390    2.8080 H       2  LIG2        0.0660
     24    H       25.8550    8.5610    4.0380 H       2  LIG2        0.0647
     25    H       28.1040    7.5640    3.7550 H       2  LIG2        0.0619
     26    H       28.3550    5.1730    3.6920 H       2  LIG2        0.0625
     27    H       24.4970    2.2590    3.6360 H       2  LIG2        0.0716
     28    H       28.4740   -0.8610    2.9050 H       2  LIG2        0.0487
     29    H       30.1610   -0.5000    2.9710 H       2  LIG2        0.0487
     30    H       29.7160   -2.4970    4.2810 H       2  LIG2        0.0575
     31    H       28.4950   -1.6800    5.2200 H       2  LIG2        0.0575
     32    H       29.1670    0.0120    6.8480 H       2  LIG2        0.0575
     33    H       30.8710    0.4180    7.0120 H       2  LIG2        0.0575
     34    H       30.9340    1.4050    4.7730 H       2  LIG2        0.0487
     35    H       29.7230    2.1350    5.7440 H       2  LIG2        0.0487
@<TRIPOS>BOND
     1    23     3    1
     2    28    11    1
     3    29    11    1
     4    21     3    1
     5    11    16    1
     6    11    12    1
     7    27    10    1
     8     3    22    1
     9     3    17    1
    10    26     6    1
    11    25     5    1
    12    10    19   ar
    13    10     8   ar
    14    19     9   ar
    15     6     5   ar
    16     6     7   ar
    17     5     4   ar
    18     8     7    1
    19     8    15   ar
    20     4    24    1
    21     4     1   ar
    22     7     2   ar
    23     9    15   ar
    24     9    16    1
    25     1     2   ar
    26     1    20    1
    27     2    17    1
    28    16    14    1
    29    30    12    1
    30    12    31    1
    31    12    18    1
    32    34    14    1
    33    14    35    1
    34    14    13    1
    35    18    13    1
    36    13    32    1
    37    13    33    1
@<TRIPOS>MOLECULE
8e1a_ligand_run_22.pdb
 35 37 0 0 0
SMALL
GASTEIGER

@<TRIPOS>ATOM
      1    C       24.9400    6.0280    3.6960 C.ar    2  LIG2        0.1654
      2    C       25.7290    4.8940    3.6040 C.ar    2  LIG2        0.1642
      3    C       27.8920    5.9710    3.7600 C.3     2  LIG2        0.0789
      4    C       23.6170    6.0810    3.9500 C.ar    2  LIG2       -0.0228
      5    C       22.9370    4.8930    4.1530 C.ar    2  LIG2       -0.0582
      6    C       23.6460    3.7050    4.1230 C.ar    2  LIG2       -0.0489
      7    C       25.0380    3.6320    3.8250 C.ar    2  LIG2        0.0454
      8    C       25.7290    2.3370    3.8090 C.ar    2  LIG2        0.0838
      9    C       27.5590    1.2280    4.1210 C.ar    2  LIG2        0.1614
     10    C       25.2740    1.0980    3.5050 C.ar    2  LIG2        0.0050
     11    C       29.4340   -0.4760    4.7510 C.3     2  LIG2        0.0375
     12    C       29.9330   -0.4120    6.1300 C.3     2  LIG2        0.0634
     13    C       30.3030    1.9700    6.0960 C.3     2  LIG2        0.0634
     14    C       29.8340    2.0230    4.6840 C.3     2  LIG2        0.0375
     15    N       27.0750    2.4020    4.1460 N.ar    2  LIG2       -0.2247
     16    N       28.9100    0.9290    4.4240 N.pl3   2  LIG2       -0.3052
     17    O       27.0850    4.8470    3.3160 O.3     2  LIG2       -0.4916
     18    O       30.9280    0.6460    6.2970 O.3     2  LIG2       -0.3767
     19    S       26.5310   -0.1060    3.6270 S.2     2  LIG2       -0.0601
     20    F       25.6580    7.1850    3.4090 F       2  LIG2       -0.2016
     21    H       28.8490    5.5800    4.0950 H       2  LIG2        0.0660
     22    H       28.0600    6.6830    2.9550 H       2  LIG2        0.0660
     23    H       27.4560    6.5060    4.6050 H       2  LIG2        0.0660
     24    H       23.0920    7.0210    3.9760 H       2  LIG2        0.0647
     25    H       21.8780    4.8960    4.3620 H       2  LIG2        0.0619
     26    H       23.0740    2.8110    4.3220 H       2  LIG2        0.0625
     27    H       24.2880    0.7870    3.1980 H       2  LIG2        0.0716
     28    H       28.6870   -1.2480    4.6210 H       2  LIG2        0.0487
     29    H       30.2300   -0.7270    4.0500 H       2  LIG2        0.0487
     30    H       30.4120   -1.3570    6.3890 H       2  LIG2        0.0575
     31    H       29.1140   -0.2840    6.8400 H       2  LIG2        0.0575
     32    H       29.4840    2.1290    6.8000 H       2  LIG2        0.0575
     33    H       31.0420    2.7520    6.2680 H       2  LIG2        0.0575
     34    H       30.6600    1.9720    3.9790 H       2  LIG2        0.0487
     35    H       29.3960    3.0040    4.5070 H       2  LIG2        0.0487
@<TRIPOS>BOND
     1    22     3    1
     2    27    10    1
     3    17     2    1
     4    17     3    1
     5    20     1    1
     6    10    19   ar
     7    10     8   ar
     8     2     1   ar
     9     2     7   ar
    10    19     9   ar
    11     1     4   ar
    12     3    21    1
    13     3    23    1
    14     8     7    1
    15     8    15   ar
    16     7     6   ar
    17     4    24    1
    18     4     5   ar
    19    34    14    1
    20    29    11    1
    21     9    15   ar
    22     9    16    1
    23     6     5   ar
    24     6    26    1
    25     5    25    1
    26    16    14    1
    27    16    11    1
    28    35    14    1
    29    28    11    1
    30    14    13    1
    31    11    12    1
    32    13    33    1
    33    13    18    1
    34    13    32    1
    35    12    18    1
    36    12    30    1
    37    12    31    1
@<TRIPOS>MOLECULE
8e1a_ligand_run_18.pdb
 35 37 0 0 0
SMALL
GASTEIGER

@<TRIPOS>ATOM
      1    C       29.3470    0.2290    4.8240 C.ar    2  LIG2        0.1654
      2    C       28.0820    0.6890    4.4970 C.ar    2  LIG2        0.1642
      3    C       26.9050   -1.4260    4.5530 C.3     2  LIG2        0.0789
      4    C       30.3970    0.9640    5.2430 C.ar    2  LIG2       -0.0228
      5    C       30.2310    2.3310    5.3810 C.ar    2  LIG2       -0.0582
      6    C       28.9900    2.8830    5.1190 C.ar    2  LIG2       -0.0489
      7    C       27.8810    2.1230    4.6450 C.ar    2  LIG2        0.0454
      8    C       26.5890    2.7730    4.3850 C.ar    2  LIG2        0.0838
      9    C       25.5120    4.5730    3.8650 C.ar    2  LIG2        0.1614
     10    C       25.3320    2.2720    4.4010 C.ar    2  LIG2        0.0050
     11    C       26.2510    6.8740    2.8780 C.3     2  LIG2        0.0375
     12    C       26.4620    7.9580    3.8450 C.3     2  LIG2        0.0634
     13    C       24.3470    7.6430    4.9590 C.3     2  LIG2        0.0634
     14    C       24.0160    6.5390    4.0180 C.3     2  LIG2        0.0375
     15    N       26.6790    4.1280    4.0920 N.ar    2  LIG2       -0.2247
     16    N       25.2370    5.9200    3.5240 N.pl3   2  LIG2       -0.3052
     17    O       27.0150   -0.0710    4.0410 O.3     2  LIG2       -0.4916
     18    O       25.2040    8.5970    4.2240 O.3     2  LIG2       -0.3767
     19    S       24.1400    3.4920    4.0350 S.2     2  LIG2       -0.0601
     20    F       29.4780   -1.1360    4.5950 F       2  LIG2       -0.2016
     21    H       25.8490   -1.6380    4.7030 H       2  LIG2        0.0660
     22    H       27.3190   -2.1510    3.8550 H       2  LIG2        0.0660
     23    H       27.3940   -1.5620    5.5190 H       2  LIG2        0.0660
     24    H       31.3500    0.5070    5.4490 H       2  LIG2        0.0647
     25    H       31.0480    2.9510    5.7180 H       2  LIG2        0.0619
     26    H       28.9050    3.9480    5.2760 H       2  LIG2        0.0625
     27    H       24.9960    1.2690    4.6160 H       2  LIG2        0.0716
     28    H       27.1770    6.3860    2.6020 H       2  LIG2        0.0487
     29    H       25.8350    7.2500    1.9430 H       2  LIG2        0.0487
     30    H       27.0990    8.7250    3.4020 H       2  LIG2        0.0575
     31    H       26.9920    7.5990    4.7300 H       2  LIG2        0.0575
     32    H       24.8490    7.2740    5.8550 H       2  LIG2        0.0575
     33    H       23.4320    8.1430    5.2760 H       2  LIG2        0.0575
     34    H       23.4220    6.8860    3.1750 H       2  LIG2        0.0487
     35    H       23.3590    5.8370    4.5320 H       2  LIG2        0.0487
@<TRIPOS>BOND
     1    29    11    1
     2    28    11    1
     3    11    16    1
     4    11    12    1
     5    34    14    1
     6    30    12    1
     7    16     9    1
     8    16    14    1
     9    12    18    1
    10    12    31    1
    11    22     3    1
    12     9    19   ar
    13     9    15   ar
    14    14    35    1
    15    14    13    1
    16    19    10   ar
    17    17     2    1
    18    17     3    1
    19    15     8   ar
    20    18    13    1
    21     8    10   ar
    22     8     7    1
    23    10    27    1
    24     2     7   ar
    25     2     1   ar
    26     3    21    1
    27     3    23    1
    28    20     1    1
    29     7     6   ar
    30     1     4   ar
    31    13    33    1
    32    13    32    1
    33     6    26    1
    34     6     5   ar
    35     4     5   ar
    36     4    24    1
    37     5    25    1
@<TRIPOS>MOLECULE
8e1a_ligand_run_21.pdb
 35 37 0 0 0
SMALL
GASTEIGER

@<TRIPOS>ATOM
      1    C       29.3580    0.4280    4.9670 C.ar    2  LIG2        0.1654
      2    C       28.3950    1.4230    4.9410 C.ar    2  LIG2        0.1642
      3    C       29.7980    3.3770    5.2150 C.3     2  LIG2        0.0789
      4    C       29.2340   -0.8380    4.5180 C.ar    2  LIG2       -0.0228
      5    C       28.0290   -1.2210    3.9550 C.ar    2  LIG2       -0.0582
      6    C       27.0160   -0.2850    3.8440 C.ar    2  LIG2       -0.0489
      7    C       27.1220    1.0460    4.3430 C.ar    2  LIG2        0.0454
      8    C       26.0070    1.9890    4.1930 C.ar    2  LIG2        0.0838
      9    C       25.3490    3.9920    3.7160 C.ar    2  LIG2        0.1614
     10    C       24.6750    1.8130    4.3580 C.ar    2  LIG2        0.0050
     11    C       26.6330    6.1130    2.8960 C.3     2  LIG2        0.0375
     12    C       26.8670    7.1590    3.9000 C.3     2  LIG2        0.0634
     13    C       24.5750    7.2360    4.6440 C.3     2  LIG2        0.0634
     14    C       24.2160    6.1910    3.6460 C.3     2  LIG2        0.0375
     15    N       26.3910    3.2770    3.8390 N.ar    2  LIG2       -0.2247
     16    N       25.3750    5.3610    3.3530 N.pl3   2  LIG2       -0.3052
     17    O       28.5230    2.7140    5.4300 O.3     2  LIG2       -0.4916
     18    O       25.6950    8.0140    4.0740 O.3     2  LIG2       -0.3767
     19    S       23.7830    3.2840    4.0700 S.2     2  LIG2       -0.0601
     20    F       30.5180    0.8450    5.6110 F       2  LIG2       -0.2016
     21    H       29.5950    4.4230    5.0000 H       2  LIG2        0.0660
     22    H       30.4340    3.3120    6.0950 H       2  LIG2        0.0660
     23    H       30.3500    2.9810    4.3620 H       2  LIG2        0.0660
     24    H       30.0420   -1.5430    4.6090 H       2  LIG2        0.0647
     25    H       27.8940   -2.2240    3.5810 H       2  LIG2        0.0619
     26    H       26.1100   -0.6270    3.3660 H       2  LIG2        0.0625
     27    H       24.1310    0.9260    4.6460 H       2  LIG2        0.0716
     28    H       27.4910    5.4660    2.7710 H       2  LIG2        0.0487
     29    H       26.4490    6.5410    1.9110 H       2  LIG2        0.0487
     30    H       27.6930    7.7950    3.5790 H       2  LIG2        0.0575
     31    H       27.1720    6.7270    4.8550 H       2  LIG2        0.0575
     32    H       24.8490    6.7990    5.6060 H       2  LIG2        0.0575
     33    H       23.7220    7.8930    4.8110 H       2  LIG2        0.0575
     34    H       23.8390    6.6240    2.7210 H       2  LIG2        0.0487
     35    H       23.3710    5.6240    4.0350 H       2  LIG2        0.0487
@<TRIPOS>BOND
     1    29    11    1
     2    34    14    1
     3    28    11    1
     4    11    16    1
     5    11    12    1
     6    16    14    1
     7    16     9    1
     8    26     6    1
     9    30    12    1
    10    25     5    1
    11    14    35    1
    12    14    13    1
    13     9    15   ar
    14     9    19   ar
    15    15     8   ar
    16     6     5   ar
    17     6     7   ar
    18    12    18    1
    19    12    31    1
    20     5     4   ar
    21    19    10   ar
    22    18    13    1
    23     8     7    1
    24     8    10   ar
    25     7     2   ar
    26    10    27    1
    27    23     3    1
    28     4    24    1
    29     4     1   ar
    30    13    33    1
    31    13    32    1
    32     2     1   ar
    33     2    17    1
    34     1    20    1
    35    21     3    1
    36     3    17    1
    37     3    22    1
@<TRIPOS>MOLECULE
8e1a_ligand_run_4.pdb
 35 37 0 0 0
SMALL
GASTEIGER

@<TRIPOS>ATOM
      1    C       31.0990   -1.8780    4.8550 C.ar    2  LIG2        0.1654
      2    C       30.6080   -0.6130    5.1300 C.ar    2  LIG2        0.1642
      3    C       29.9990    0.0830    7.3670 C.3     2  LIG2        0.0789
      4    C       30.7950   -2.6570    3.7960 C.ar    2  LIG2       -0.0228
      5    C       29.9040   -2.1710    2.8550 C.ar    2  LIG2       -0.0582
      6    C       29.3890   -0.8970    3.0190 C.ar    2  LIG2       -0.0489
      7    C       29.6770   -0.0760    4.1480 C.ar    2  LIG2        0.0454
      8    C       29.0950    1.2680    4.2590 C.ar    2  LIG2        0.0838
      9    C       27.3810    2.5550    3.9820 C.ar    2  LIG2        0.1614
     10    C       29.6340    2.4270    4.7060 C.ar    2  LIG2        0.0050
     11    C       25.5160    4.3830    4.0020 C.3     2  LIG2        0.0375
     12    C       24.3760    4.1370    4.8940 C.3     2  LIG2        0.0634
     13    C       23.9860    1.8930    4.1040 C.3     2  LIG2        0.0634
     14    C       25.1120    2.0360    3.1410 C.3     2  LIG2        0.0375
     15    N       27.7820    1.3620    3.8170 N.ar    2  LIG2       -0.2247
     16    N       26.0800    3.0010    3.6440 N.pl3   2  LIG2       -0.3052
     17    O       30.9060    0.1700    6.2350 O.3     2  LIG2       -0.4916
     18    O       23.3980    3.2370    4.2870 O.3     2  LIG2       -0.3767
     19    S       28.5040    3.7520    4.6060 S.2     2  LIG2       -0.0601
     20    F       31.9280   -2.3460    5.8690 F       2  LIG2       -0.2016
     21    H       30.5970    0.1330    8.2740 H       2  LIG2        0.0660
     22    H       29.2820    0.9020    7.3670 H       2  LIG2        0.0660
     23    H       29.4470   -0.8570    7.4050 H       2  LIG2        0.0660
     24    H       31.2180   -3.6420    3.6900 H       2  LIG2        0.0647
     25    H       29.6400   -2.7640    1.9940 H       2  LIG2        0.0619
     26    H       28.7260   -0.5540    2.2380 H       2  LIG2        0.0625
     27    H       30.6270    2.6220    5.0800 H       2  LIG2        0.0716
     28    H       26.2520    5.0380    4.4500 H       2  LIG2        0.0487
     29    H       25.2050    4.8840    3.0860 H       2  LIG2        0.0487
     30    H       23.8690    5.0790    5.1060 H       2  LIG2        0.0575
     31    H       24.7080    3.7500    5.8590 H       2  LIG2        0.0575
     32    H       24.3190    1.4760    5.0560 H       2  LIG2        0.0575
     33    H       23.2350    1.2200    3.6940 H       2  LIG2        0.0575
     34    H       24.7700    2.3500    2.1570 H       2  LIG2        0.0487
     35    H       25.5420    1.0500    2.9690 H       2  LIG2        0.0487
@<TRIPOS>BOND
     1    25     5    1
     2    34    14    1
     3    26     6    1
     4     5     6   ar
     5     5     4   ar
     6    35    14    1
     7     6     7   ar
     8    29    11    1
     9    14    16    1
    10    14    13    1
    11    16     9    1
    12    16    11    1
    13    24     4    1
    14    33    13    1
    15     4     1   ar
    16    15     9   ar
    17    15     8   ar
    18     9    19   ar
    19    11    28    1
    20    11    12    1
    21    13    18    1
    22    13    32    1
    23     7     8    1
    24     7     2   ar
    25     8    10   ar
    26    18    12    1
    27    19    10   ar
    28    10    27    1
    29     1     2   ar
    30     1    20    1
    31    12    30    1
    32    12    31    1
    33     2    17    1
    34    17     3    1
    35    22     3    1
    36     3    23    1
    37     3    21    1
@<TRIPOS>MOLECULE
8e1a_ligand_run_13.pdb
 35 37 0 0 0
SMALL
GASTEIGER

@<TRIPOS>ATOM
      1    C       30.1520    0.1710    5.1820 C.ar    2  LIG2        0.1654
      2    C       28.9820    0.8690    4.9380 C.ar    2  LIG2        0.1642
      3    C       29.7840    3.1430    5.1590 C.3     2  LIG2        0.0789
      4    C       30.4180   -1.1110    4.8550 C.ar    2  LIG2       -0.0228
      5    C       29.4430   -1.8380    4.1950 C.ar    2  LIG2       -0.0582
      6    C       28.2520   -1.2150    3.8680 C.ar    2  LIG2       -0.0489
      7    C       27.9450    0.1280    4.2350 C.ar    2  LIG2        0.0454
      8    C       26.6600    0.7290    3.8550 C.ar    2  LIG2        0.0838
      9    C       25.2620    2.3630    4.0730 C.ar    2  LIG2        0.1614
     10    C       25.7040    0.2970    3.0000 C.ar    2  LIG2        0.0050
     11    C       23.1640    3.7970    4.6730 C.3     2  LIG2        0.0375
     12    C       22.8050    4.8540    3.7190 C.3     2  LIG2        0.0634
     13    C       25.0260    5.7850    3.6110 C.3     2  LIG2        0.0634
     14    C       25.4990    4.7710    4.5930 C.3     2  LIG2        0.0375
     15    N       26.3780    1.9290    4.4950 N.ar    2  LIG2       -0.2247
     16    N       24.6740    3.5750    4.5120 N.pl3   2  LIG2       -0.3052
     17    O       28.7060    2.1790    5.3020 O.3     2  LIG2       -0.4916
     18    O       23.6070    6.0590    3.9200 O.3     2  LIG2       -0.3767
     19    S       24.3490    1.3940    2.9290 S.2     2  LIG2       -0.0601
     20    F       31.0640    0.9240    5.9130 F       2  LIG2       -0.2016
     21    H       29.3480    4.0780    4.8160 H       2  LIG2        0.0660
     22    H       30.2940    3.3140    6.1050 H       2  LIG2        0.0660
     23    H       30.5270    2.8500    4.4170 H       2  LIG2        0.0660
     24    H       31.3580   -1.5680    5.1150 H       2  LIG2        0.0647
     25    H       29.6220   -2.8650    3.9150 H       2  LIG2        0.0619
     26    H       27.5400   -1.8170    3.3230 H       2  LIG2        0.0625
     27    H       25.6730   -0.6010    2.4020 H       2  LIG2        0.0716
     28    H       22.5840    2.8960    4.5220 H       2  LIG2        0.0487
     29    H       22.9600    4.1010    5.6990 H       2  LIG2        0.0487
     30    H       21.7590    5.1290    3.8550 H       2  LIG2        0.0575
     31    H       22.8930    4.5010    2.6890 H       2  LIG2        0.0575
     32    H       25.1460    5.4390    2.5830 H       2  LIG2        0.0575
     33    H       25.6060    6.7010    3.7200 H       2  LIG2        0.0575
     34    H       25.4830    5.1510    5.6120 H       2  LIG2        0.0487
     35    H       26.5540    4.5760    4.4010 H       2  LIG2        0.0487
@<TRIPOS>BOND
     1    27    10    1
     2    32    13    1
     3    31    12    1
     4    19    10   ar
     5    19     9   ar
     6    10     8   ar
     7    26     6    1
     8    13    33    1
     9    13    18    1
    10    13    14    1
    11    12    30    1
    12    12    18    1
    13    12    11    1
    14     8     7    1
    15     8    15   ar
    16     6     5   ar
    17     6     7   ar
    18    25     5    1
    19     9    15   ar
    20     9    16    1
    21     5     4   ar
    22     7     2   ar
    23    35    14    1
    24    23     3    1
    25    16    14    1
    26    16    11    1
    27    28    11    1
    28    14    34    1
    29    11    29    1
    30    21     3    1
    31     4    24    1
    32     4     1   ar
    33     2     1   ar
    34     2    17    1
    35     3    17    1
    36     3    22    1
    37     1    20    1
@<TRIPOS>MOLECULE
8e1a_ligand_run_6.pdb
 35 37 0 0 0
SMALL
GASTEIGER

@<TRIPOS>ATOM
      1    C       27.5910   -0.4300    4.8520 C.ar    2  LIG2        0.1654
      2    C       27.9610    0.9020    4.9300 C.ar    2  LIG2        0.1642
      3    C       30.1710    0.6450    5.8850 C.3     2  LIG2        0.0789
      4    C       26.5990   -0.9570    4.1050 C.ar    2  LIG2       -0.0228
      5    C       25.8500   -0.1070    3.3100 C.ar    2  LIG2       -0.0582
      6    C       26.1700    1.2390    3.2870 C.ar    2  LIG2       -0.0489
      7    C       27.1940    1.8140    4.0940 C.ar    2  LIG2        0.0454
      8    C       27.4810    3.2530    4.0210 C.ar    2  LIG2        0.0838
      9    C       26.7320    5.2630    3.7600 C.ar    2  LIG2        0.1614
     10    C       28.6510    3.9240    4.1330 C.ar    2  LIG2        0.0050
     11    C       26.1780    7.8130    3.8470 C.3     2  LIG2        0.0375
     12    C       25.2370    8.2380    4.8910 C.3     2  LIG2        0.0634
     13    C       23.5820    6.5680    4.3580 C.3     2  LIG2        0.0634
     14    C       24.4460    6.0650    3.2550 C.3     2  LIG2        0.0375
     15    N       26.3670    4.0470    3.7790 N.ar    2  LIG2       -0.2247
     16    N       25.8430    6.3460    3.5470 N.pl3   2  LIG2       -0.3052
     17    O       28.9650    1.4390    5.7220 O.3     2  LIG2       -0.4916
     18    O       23.8490    8.0160    4.4920 O.3     2  LIG2       -0.3767
     19    S       28.4350    5.6450    3.9440 S.2     2  LIG2       -0.0601
     20    F       28.3250   -1.2250    5.7270 F       2  LIG2       -0.2016
     21    H       31.0180    1.3270    5.8890 H       2  LIG2        0.0660
     22    H       30.1580    0.0880    6.8200 H       2  LIG2        0.0660
     23    H       30.3360   -0.0590    5.0680 H       2  LIG2        0.0660
     24    H       26.3780   -2.0110    4.1370 H       2  LIG2        0.0647
     25    H       25.0510   -0.4930    2.6970 H       2  LIG2        0.0619
     26    H       25.5770    1.8520    2.6240 H       2  LIG2        0.0625
     27    H       29.6470    3.5440    4.3000 H       2  LIG2        0.0716
     28    H       27.2090    7.9620    4.1400 H       2  LIG2        0.0487
     29    H       26.0510    8.3970    2.9350 H       2  LIG2        0.0487
     30    H       25.3570    9.3060    5.0780 H       2  LIG2        0.0575
     31    H       25.4490    7.7400    5.8390 H       2  LIG2        0.0575
     32    H       23.7770    6.0440    5.2950 H       2  LIG2        0.0575
     33    H       22.5340    6.4120    4.1050 H       2  LIG2        0.0575
     34    H       24.1820    6.5070    2.2970 H       2  LIG2        0.0487
     35    H       24.2420    5.0030    3.1200 H       2  LIG2        0.0487
@<TRIPOS>BOND
     1    34    14    1
     2    26     6    1
     3    25     5    1
     4    29    11    1
     5    35    14    1
     6    14    16    1
     7    14    13    1
     8     6     5   ar
     9     6     7   ar
    10     5     4   ar
    11    16     9    1
    12    16    11    1
    13     9    15   ar
    14     9    19   ar
    15    15     8   ar
    16    11    28    1
    17    11    12    1
    18    19    10   ar
    19     8     7    1
    20     8    10   ar
    21     7     2   ar
    22    33    13    1
    23     4    24    1
    24     4     1   ar
    25    10    27    1
    26    13    18    1
    27    13    32    1
    28    18    12    1
    29     1     2   ar
    30     1    20    1
    31    12    30    1
    32    12    31    1
    33     2    17    1
    34    23     3    1
    35    17     3    1
    36     3    21    1
    37     3    22    1
@<TRIPOS>MOLECULE
8e1a_ligand_run_16.pdb
 35 37 0 0 0
SMALL
GASTEIGER

@<TRIPOS>ATOM
      1    C       27.1580    6.0420    3.9630 C.ar    2  LIG2        0.1654
      2    C       27.3550    4.6790    3.8260 C.ar    2  LIG2        0.1642
      3    C       29.2980    3.6650    4.8550 C.3     2  LIG2        0.0789
      4    C       25.9810    6.6850    4.1050 C.ar    2  LIG2       -0.0228
      5    C       24.8190    5.9330    4.1290 C.ar    2  LIG2       -0.0582
      6    C       24.9130    4.5550    4.0410 C.ar    2  LIG2       -0.0489
      7    C       26.1470    3.8660    3.8590 C.ar    2  LIG2        0.0454
      8    C       26.1770    2.4000    3.7730 C.ar    2  LIG2        0.0838
      9    C       27.1620    0.5490    4.2980 C.ar    2  LIG2        0.1614
     10    C       25.3370    1.5370    3.1550 C.ar    2  LIG2        0.0050
     11    C       29.0950   -0.0160    5.9610 C.3     2  LIG2        0.0375
     12    C       30.4300   -0.1810    5.3730 C.3     2  LIG2        0.0634
     13    C       29.7030   -1.7130    3.6590 C.3     2  LIG2        0.0634
     14    C       28.3120   -1.6390    4.1830 C.3     2  LIG2        0.0375
     15    N       27.2550    1.8100    4.4200 N.ar    2  LIG2       -0.2247
     16    N       28.0960   -0.3630    4.8490 N.pl3   2  LIG2       -0.3052
     17    O       28.5680    4.0290    3.6520 O.3     2  LIG2       -0.4916
     18    O       30.6110   -1.5170    4.8080 O.3     2  LIG2       -0.3767
     19    S       25.8470   -0.1200    3.3490 S.2     2  LIG2       -0.0601
     20    F       28.3490    6.7520    3.8550 F       2  LIG2       -0.2016
     21    H       29.7600    2.6960    4.6820 H       2  LIG2        0.0660
     22    H       30.0730    4.3930    5.0860 H       2  LIG2        0.0660
     23    H       28.6570    3.5570    5.7310 H       2  LIG2        0.0660
     24    H       25.9370    7.7580    4.1800 H       2  LIG2        0.0647
     25    H       23.8590    6.4120    4.2450 H       2  LIG2        0.0619
     26    H       23.9800    4.0150    4.1000 H       2  LIG2        0.0625
     27    H       24.4480    1.7390    2.5770 H       2  LIG2        0.0716
     28    H       28.9470    0.9750    6.3690 H       2  LIG2        0.0487
     29    H       28.9410   -0.6970    6.7980 H       2  LIG2        0.0487
     30    H       31.1880   -0.0450    6.1450 H       2  LIG2        0.0575
     31    H       30.6260    0.5840    4.6190 H       2  LIG2        0.0575
     32    H       29.8830   -0.9660    2.8840 H       2  LIG2        0.0575
     33    H       29.8780   -2.6940    3.2180 H       2  LIG2        0.0575
     34    H       28.0950   -2.4490    4.8770 H       2  LIG2        0.0487
     35    H       27.6250   -1.8110    3.3550 H       2  LIG2        0.0487
@<TRIPOS>BOND
     1    27    10    1
     2    32    13    1
     3    10    19   ar
     4    10     8   ar
     5    33    13    1
     6    19     9   ar
     7    35    14    1
     8    17     2    1
     9    17     3    1
    10    13    14    1
    11    13    18    1
    12     8     7    1
    13     8    15   ar
    14     2     7   ar
    15     2     1   ar
    16    20     1    1
    17     7     6   ar
    18     1     4   ar
    19     6    26    1
    20     6     5   ar
    21     4     5   ar
    22     4    24    1
    23     5    25    1
    24    14    16    1
    25    14    34    1
    26     9    15   ar
    27     9    16    1
    28    31    12    1
    29    21     3    1
    30    18    12    1
    31    16    11    1
    32     3    22    1
    33     3    23    1
    34    12    11    1
    35    12    30    1
    36    11    28    1
    37    11    29    1
