# Top-energy pose of compounds ranked according to the score (given in kcal/mol).
@<TRIPOS>MOLECULE
6kpf_ligand_run_23.pdb
 66 68 0 0 0
SMALL
GASTEIGER

@<TRIPOS>ATOM
      1    C      111.3170  110.7730  126.0950 C.ar    2  LIG2       -0.0157
      2    N      108.2910  113.7670  132.2750 N.1     2  LIG2       -0.1966
      3    O      111.7960  108.5140  126.7560 O.3     2  LIG2       -0.4855
      4    C      110.6750  111.7210  125.3240 C.ar    2  LIG2       -0.0348
      5    O      106.0490  105.9670  124.7090 O.3     2  LIG2       -0.3947
      6    C      109.7710  111.4280  124.3210 C.ar    2  LIG2       -0.0160
      7    O      108.6980  109.8180  123.1870 O.3     2  LIG2       -0.5064
      8    C      109.5990  110.0450  124.1960 C.ar    2  LIG2        0.1240
      9    C      110.1970  108.9740  124.9410 C.ar    2  LIG2        0.0391
     10    C      111.1210  109.3980  125.9490 C.ar    2  LIG2        0.1285
     11    C      110.0280  107.4440  124.8210 C.3     2  LIG2       -0.0022
     12    C      110.1470  106.8060  126.2380 C.3     2  LIG2        0.0054
     13    C      111.5570  107.0800  126.7680 C.3     2  LIG2        0.1084
     14    C      108.7010  106.8870  124.2450 C.3     2  LIG2       -0.0407
     15    C      108.3460  105.4060  124.1810 C.3     2  LIG2       -0.0172
     16    C      108.5470  104.8600  125.6020 C.3     2  LIG2       -0.0477
     17    C      109.8770  105.2800  126.2640 C.3     2  LIG2       -0.0457
     18    C      106.8770  105.3020  123.7710 C.3     2  LIG2        0.0470
     19    C      111.6720  106.5850  128.2130 C.3     2  LIG2       -0.0249
     20    C      112.5930  106.3730  125.8860 C.3     2  LIG2       -0.0249
     21    C      111.0070  113.2050  125.6160 C.3     2  LIG2       -0.0096
     22    C      110.6850  113.5370  127.1060 C.3     2  LIG2       -0.0439
     23    C      110.2300  114.1650  124.6920 C.3     2  LIG2       -0.0558
     24    C      112.5070  113.4120  125.3440 C.3     2  LIG2       -0.0558
     25    C      109.1710  113.5020  127.3310 C.3     2  LIG2       -0.0522
     26    C      108.8520  113.2760  128.8160 C.3     2  LIG2       -0.0521
     27    C      107.3380  113.4070  129.0270 C.3     2  LIG2       -0.0402
     28    C      106.9390  112.6750  130.3270 C.3     2  LIG2        0.0348
     29    C      107.6710  113.2960  131.4180 C.1     2  LIG2        0.0625
     30    H      112.0150  111.0800  126.8600 H       2  LIG2        0.0657
     31    H      105.1510  106.0070  124.3720 H       2  LIG2        0.2094
     32    H      109.3080  112.2270  123.7610 H       2  LIG2        0.0657
     33    H      108.4430  110.6540  122.7900 H       2  LIG2        0.2921
     34    H      110.8460  107.0610  124.2110 H       2  LIG2        0.0355
     35    H      109.4290  107.2950  126.8970 H       2  LIG2        0.0345
     36    H      108.5450  107.3230  123.2590 H       2  LIG2        0.0275
     37    H      107.8730  107.4210  124.7110 H       2  LIG2        0.0275
     38    H      108.9850  104.8830  123.4700 H       2  LIG2        0.0323
     39    H      108.4800  103.7720  125.5830 H       2  LIG2        0.0269
     40    H      107.7150  105.1760  126.2310 H       2  LIG2        0.0269
     41    H      109.8940  104.9270  127.2950 H       2  LIG2        0.0269
     42    H      110.7030  104.7580  125.7780 H       2  LIG2        0.0269
     43    H      106.7430  105.7510  122.7870 H       2  LIG2        0.0560
     44    H      106.5890  104.2530  123.7130 H       2  LIG2        0.0560
     45    H      111.4960  105.5100  128.2440 H       2  LIG2        0.0268
     46    H      112.6710  106.8000  128.5930 H       2  LIG2        0.0268
     47    H      110.9320  107.0920  128.8320 H       2  LIG2        0.0268
     48    H      112.4090  105.2990  125.8990 H       2  LIG2        0.0268
     49    H      112.5140  106.7420  124.8640 H       2  LIG2        0.0268
     50    H      113.5940  106.5740  126.2680 H       2  LIG2        0.0268
     51    H      111.0650  114.5290  127.3480 H       2  LIG2        0.0274
     52    H      111.1650  112.8030  127.7530 H       2  LIG2        0.0274
     53    H      110.4940  115.1950  124.9320 H       2  LIG2        0.0238
     54    H      110.4870  113.9580  123.6540 H       2  LIG2        0.0238
     55    H      109.1590  114.0220  124.8370 H       2  LIG2        0.0238
     56    H      112.7720  114.4500  125.5410 H       2  LIG2        0.0238
     57    H      113.0870  112.7600  125.9950 H       2  LIG2        0.0238
     58    H      112.7240  113.1730  124.3030 H       2  LIG2        0.0238
     59    H      108.7350  112.6970  126.7400 H       2  LIG2        0.0266
     60    H      108.7340  114.4460  127.0060 H       2  LIG2        0.0266
     61    H      109.3690  114.0250  129.4170 H       2  LIG2        0.0266
     62    H      109.1740  112.2760  129.1080 H       2  LIG2        0.0266
     63    H      106.8140  112.9590  128.1820 H       2  LIG2        0.0275
     64    H      107.0720  114.4610  129.1070 H       2  LIG2        0.0275
     65    H      107.2200  111.6250  130.2530 H       2  LIG2        0.0418
     66    H      105.8680  112.7930  130.4950 H       2  LIG2        0.0418
@<TRIPOS>BOND
     1    43    18    1
     2    33     7    1
     3     7     8    1
     4    36    14    1
     5    38    15    1
     6    54    23    1
     7    44    18    1
     8    32     6    1
     9    18    15    1
    10    18     5    1
    11    15    14    1
    12    15    16    1
    13     8     6   ar
    14     8     9   ar
    15    34    11    1
    16    14    37    1
    17    14    11    1
    18    58    24    1
    19     6     4   ar
    20    31     5    1
    21    23    55    1
    22    23    53    1
    23    23    21    1
    24    11     9    1
    25    11    12    1
    26    49    20    1
    27     9    10   ar
    28     4    21    1
    29     4     1   ar
    30    24    56    1
    31    24    21    1
    32    24    57    1
    33    39    16    1
    34    16    40    1
    35    16    17    1
    36    21    22    1
    37    42    17    1
    38    20    48    1
    39    20    50    1
    40    20    13    1
    41    10     1   ar
    42    10     3    1
    43     1    30    1
    44    12    17    1
    45    12    13    1
    46    12    35    1
    47    17    41    1
    48    59    25    1
    49     3    13    1
    50    13    19    1
    51    60    25    1
    52    22    25    1
    53    22    51    1
    54    22    52    1
    55    25    26    1
    56    63    27    1
    57    19    45    1
    58    19    46    1
    59    19    47    1
    60    26    27    1
    61    26    62    1
    62    26    61    1
    63    27    64    1
    64    27    28    1
    65    65    28    1
    66    28    66    1
    67    28    29    1
    68    29     2    3
