@<TRIPOS>MOLECULE
6kpf_ligand_run_23.pdb
 66 68 0 0 0
SMALL
GASTEIGER

@<TRIPOS>ATOM
      1    C      111.3170  110.7730  126.0950 C.ar    2  LIG2       -0.0157
      2    N      108.2910  113.7670  132.2750 N.1     2  LIG2       -0.1966
      3    O      111.7960  108.5140  126.7560 O.3     2  LIG2       -0.4855
      4    C      110.6750  111.7210  125.3240 C.ar    2  LIG2       -0.0348
      5    O      106.0490  105.9670  124.7090 O.3     2  LIG2       -0.3947
      6    C      109.7710  111.4280  124.3210 C.ar    2  LIG2       -0.0160
      7    O      108.6980  109.8180  123.1870 O.3     2  LIG2       -0.5064
      8    C      109.5990  110.0450  124.1960 C.ar    2  LIG2        0.1240
      9    C      110.1970  108.9740  124.9410 C.ar    2  LIG2        0.0391
     10    C      111.1210  109.3980  125.9490 C.ar    2  LIG2        0.1285
     11    C      110.0280  107.4440  124.8210 C.3     2  LIG2       -0.0022
     12    C      110.1470  106.8060  126.2380 C.3     2  LIG2        0.0054
     13    C      111.5570  107.0800  126.7680 C.3     2  LIG2        0.1084
     14    C      108.7010  106.8870  124.2450 C.3     2  LIG2       -0.0407
     15    C      108.3460  105.4060  124.1810 C.3     2  LIG2       -0.0172
     16    C      108.5470  104.8600  125.6020 C.3     2  LIG2       -0.0477
     17    C      109.8770  105.2800  126.2640 C.3     2  LIG2       -0.0457
     18    C      106.8770  105.3020  123.7710 C.3     2  LIG2        0.0470
     19    C      111.6720  106.5850  128.2130 C.3     2  LIG2       -0.0249
     20    C      112.5930  106.3730  125.8860 C.3     2  LIG2       -0.0249
     21    C      111.0070  113.2050  125.6160 C.3     2  LIG2       -0.0096
     22    C      110.6850  113.5370  127.1060 C.3     2  LIG2       -0.0439
     23    C      110.2300  114.1650  124.6920 C.3     2  LIG2       -0.0558
     24    C      112.5070  113.4120  125.3440 C.3     2  LIG2       -0.0558
     25    C      109.1710  113.5020  127.3310 C.3     2  LIG2       -0.0522
     26    C      108.8520  113.2760  128.8160 C.3     2  LIG2       -0.0521
     27    C      107.3380  113.4070  129.0270 C.3     2  LIG2       -0.0402
     28    C      106.9390  112.6750  130.3270 C.3     2  LIG2        0.0348
     29    C      107.6710  113.2960  131.4180 C.1     2  LIG2        0.0625
     30    H      112.0150  111.0800  126.8600 H       2  LIG2        0.0657
     31    H      105.1510  106.0070  124.3720 H       2  LIG2        0.2094
     32    H      109.3080  112.2270  123.7610 H       2  LIG2        0.0657
     33    H      108.4430  110.6540  122.7900 H       2  LIG2        0.2921
     34    H      110.8460  107.0610  124.2110 H       2  LIG2        0.0355
     35    H      109.4290  107.2950  126.8970 H       2  LIG2        0.0345
     36    H      108.5450  107.3230  123.2590 H       2  LIG2        0.0275
     37    H      107.8730  107.4210  124.7110 H       2  LIG2        0.0275
     38    H      108.9850  104.8830  123.4700 H       2  LIG2        0.0323
     39    H      108.4800  103.7720  125.5830 H       2  LIG2        0.0269
     40    H      107.7150  105.1760  126.2310 H       2  LIG2        0.0269
     41    H      109.8940  104.9270  127.2950 H       2  LIG2        0.0269
     42    H      110.7030  104.7580  125.7780 H       2  LIG2        0.0269
     43    H      106.7430  105.7510  122.7870 H       2  LIG2        0.0560
     44    H      106.5890  104.2530  123.7130 H       2  LIG2        0.0560
     45    H      111.4960  105.5100  128.2440 H       2  LIG2        0.0268
     46    H      112.6710  106.8000  128.5930 H       2  LIG2        0.0268
     47    H      110.9320  107.0920  128.8320 H       2  LIG2        0.0268
     48    H      112.4090  105.2990  125.8990 H       2  LIG2        0.0268
     49    H      112.5140  106.7420  124.8640 H       2  LIG2        0.0268
     50    H      113.5940  106.5740  126.2680 H       2  LIG2        0.0268
     51    H      111.0650  114.5290  127.3480 H       2  LIG2        0.0274
     52    H      111.1650  112.8030  127.7530 H       2  LIG2        0.0274
     53    H      110.4940  115.1950  124.9320 H       2  LIG2        0.0238
     54    H      110.4870  113.9580  123.6540 H       2  LIG2        0.0238
     55    H      109.1590  114.0220  124.8370 H       2  LIG2        0.0238
     56    H      112.7720  114.4500  125.5410 H       2  LIG2        0.0238
     57    H      113.0870  112.7600  125.9950 H       2  LIG2        0.0238
     58    H      112.7240  113.1730  124.3030 H       2  LIG2        0.0238
     59    H      108.7350  112.6970  126.7400 H       2  LIG2        0.0266
     60    H      108.7340  114.4460  127.0060 H       2  LIG2        0.0266
     61    H      109.3690  114.0250  129.4170 H       2  LIG2        0.0266
     62    H      109.1740  112.2760  129.1080 H       2  LIG2        0.0266
     63    H      106.8140  112.9590  128.1820 H       2  LIG2        0.0275
     64    H      107.0720  114.4610  129.1070 H       2  LIG2        0.0275
     65    H      107.2200  111.6250  130.2530 H       2  LIG2        0.0418
     66    H      105.8680  112.7930  130.4950 H       2  LIG2        0.0418
@<TRIPOS>BOND
     1    43    18    1
     2    33     7    1
     3     7     8    1
     4    36    14    1
     5    38    15    1
     6    54    23    1
     7    44    18    1
     8    32     6    1
     9    18    15    1
    10    18     5    1
    11    15    14    1
    12    15    16    1
    13     8     6   ar
    14     8     9   ar
    15    34    11    1
    16    14    37    1
    17    14    11    1
    18    58    24    1
    19     6     4   ar
    20    31     5    1
    21    23    55    1
    22    23    53    1
    23    23    21    1
    24    11     9    1
    25    11    12    1
    26    49    20    1
    27     9    10   ar
    28     4    21    1
    29     4     1   ar
    30    24    56    1
    31    24    21    1
    32    24    57    1
    33    39    16    1
    34    16    40    1
    35    16    17    1
    36    21    22    1
    37    42    17    1
    38    20    48    1
    39    20    50    1
    40    20    13    1
    41    10     1   ar
    42    10     3    1
    43     1    30    1
    44    12    17    1
    45    12    13    1
    46    12    35    1
    47    17    41    1
    48    59    25    1
    49     3    13    1
    50    13    19    1
    51    60    25    1
    52    22    25    1
    53    22    51    1
    54    22    52    1
    55    25    26    1
    56    63    27    1
    57    19    45    1
    58    19    46    1
    59    19    47    1
    60    26    27    1
    61    26    62    1
    62    26    61    1
    63    27    64    1
    64    27    28    1
    65    65    28    1
    66    28    66    1
    67    28    29    1
    68    29     2    3
@<TRIPOS>MOLECULE
6kpf_ligand_run_14.pdb
 66 68 0 0 0
SMALL
GASTEIGER

@<TRIPOS>ATOM
      1    C      109.7830  110.9800  124.6050 C.ar    2  LIG2       -0.0157
      2    N      108.3650  112.2370  131.9250 N.1     2  LIG2       -0.1966
      3    O      108.6670  109.0610  123.6900 O.3     2  LIG2       -0.4855
      4    C      110.6150  111.6050  125.5120 C.ar    2  LIG2       -0.0348
      5    O      112.0510  104.3690  128.1090 O.3     2  LIG2       -0.3947
      6    C      111.2650  110.9600  126.5470 C.ar    2  LIG2       -0.0160
      7    O      111.6300  109.0110  127.5940 O.3     2  LIG2       -0.5064
      8    C      110.9640  109.5940  126.5470 C.ar    2  LIG2        0.1240
      9    C      110.1300  108.8360  125.6570 C.ar    2  LIG2        0.0391
     10    C      109.5050  109.6130  124.6280 C.ar    2  LIG2        0.1285
     11    C      109.7780  107.3330  125.6370 C.3     2  LIG2       -0.0022
     12    C      109.6060  106.8700  124.1600 C.3     2  LIG2        0.0054
     13    C      108.4260  107.6340  123.5540 C.3     2  LIG2        0.1084
     14    C      110.7840  106.3290  126.2540 C.3     2  LIG2       -0.0407
     15    C      110.6290  104.8120  126.1990 C.3     2  LIG2       -0.0172
     16    C      110.4100  104.4630  124.7200 C.3     2  LIG2       -0.0477
     17    C      109.3650  105.3460  124.0030 C.3     2  LIG2       -0.0457
     18    C      111.9320  104.1980  126.7070 C.3     2  LIG2        0.0470
     19    C      108.3070  107.3050  122.0620 C.3     2  LIG2       -0.0249
     20    C      107.1300  107.2540  124.2800 C.3     2  LIG2       -0.0249
     21    C      110.8170  113.1320  125.3430 C.3     2  LIG2       -0.0096
     22    C      110.4570  113.8630  126.6740 C.3     2  LIG2       -0.0439
     23    C      109.9650  113.7040  124.1920 C.3     2  LIG2       -0.0558
     24    C      112.2940  113.3740  124.9930 C.3     2  LIG2       -0.0558
     25    C      109.0000  113.5780  127.0480 C.3     2  LIG2       -0.0522
     26    C      108.7800  113.7810  128.5530 C.3     2  LIG2       -0.0521
     27    C      107.3320  113.4110  128.9000 C.3     2  LIG2       -0.0402
     28    C      107.0300  113.8400  130.3530 C.3     2  LIG2        0.0348
     29    C      107.7910  112.9660  131.2320 C.1     2  LIG2        0.0625
     30    H      109.3070  111.5540  123.8230 H       2  LIG2        0.0657
     31    H      112.8870  104.0020  128.4060 H       2  LIG2        0.2094
     32    H      111.9010  111.5190  127.2170 H       2  LIG2        0.0657
     33    H      111.0540  108.3780  128.0290 H       2  LIG2        0.2921
     34    H      108.8210  107.2050  126.1430 H       2  LIG2        0.0355
     35    H      110.5090  107.1350  123.6090 H       2  LIG2        0.0345
     36    H      110.9700  106.6190  127.2880 H       2  LIG2        0.0275
     37    H      111.7850  106.5860  125.9080 H       2  LIG2        0.0275
     38    H      109.7830  104.4860  126.8040 H       2  LIG2        0.0323
     39    H      110.1170  103.4160  124.6360 H       2  LIG2        0.0269
     40    H      111.3600  104.5260  124.1900 H       2  LIG2        0.0269
     41    H      109.3430  105.0910  122.9450 H       2  LIG2        0.0269
     42    H      108.3690  105.0980  124.3710 H       2  LIG2        0.0269
     43    H      111.9500  103.1340  126.4690 H       2  LIG2        0.0560
     44    H      112.7770  104.6750  126.2100 H       2  LIG2        0.0560
     45    H      108.1260  106.2370  121.9390 H       2  LIG2        0.0268
     46    H      107.4780  107.8660  121.6310 H       2  LIG2        0.0268
     47    H      109.2320  107.5770  121.5540 H       2  LIG2        0.0268
     48    H      106.9540  106.1840  124.1750 H       2  LIG2        0.0268
     49    H      107.2180  107.5050  125.3370 H       2  LIG2        0.0268
     50    H      106.2950  107.8030  123.8450 H       2  LIG2        0.0268
     51    H      110.5970  114.9360  126.5480 H       2  LIG2        0.0274
     52    H      111.1120  113.5100  127.4700 H       2  LIG2        0.0274
     53    H      110.1380  114.7770  124.1100 H       2  LIG2        0.0238
     54    H      110.2460  113.2200  123.2570 H       2  LIG2        0.0238
     55    H      108.9100  113.5210  124.3940 H       2  LIG2        0.0238
     56    H      112.4680  114.4420  124.8670 H       2  LIG2        0.0238
     57    H      112.9250  112.9960  125.7960 H       2  LIG2        0.0238
     58    H      112.5370  112.8550  124.0660 H       2  LIG2        0.0238
     59    H      108.7510  112.5520  126.7800 H       2  LIG2        0.0266
     60    H      108.3450  114.2490  126.4910 H       2  LIG2        0.0266
     61    H      108.9600  114.8260  128.8090 H       2  LIG2        0.0266
     62    H      109.4630  113.1390  129.1100 H       2  LIG2        0.0266
     63    H      107.2000  112.3340  128.8040 H       2  LIG2        0.0275
     64    H      106.6530  113.9270  128.2220 H       2  LIG2        0.0275
     65    H      105.9660  113.7180  130.5540 H       2  LIG2        0.0418
     66    H      107.3510  114.8710  130.5010 H       2  LIG2        0.0418
@<TRIPOS>BOND
     1    47    19    1
     2    46    19    1
     3    45    19    1
     4    19    13    1
     5    41    17    1
     6    54    23    1
     7    13     3    1
     8    13    12    1
     9    13    20    1
    10    35    12    1
    11     3    10    1
    12    30     1    1
    13    50    20    1
    14    17    12    1
    15    17    42    1
    16    17    16    1
    17    58    24    1
    18    53    23    1
    19    12    11    1
    20    48    20    1
    21    40    16    1
    22    23    55    1
    23    23    21    1
    24    20    49    1
    25     1    10   ar
    26     1     4   ar
    27    10     9   ar
    28    39    16    1
    29    16    15    1
    30    56    24    1
    31    24    21    1
    32    24    57    1
    33    21     4    1
    34    21    22    1
    35     4     6   ar
    36    11     9    1
    37    11    34    1
    38    11    14    1
    39     9     8   ar
    40    37    14    1
    41    15    14    1
    42    15    18    1
    43    15    38    1
    44    44    18    1
    45    14    36    1
    46    43    18    1
    47    60    25    1
    48     8     6   ar
    49     8     7    1
    50     6    32    1
    51    51    22    1
    52    22    25    1
    53    22    52    1
    54    18     5    1
    55    59    25    1
    56    25    26    1
    57     7    33    1
    58     5    31    1
    59    64    27    1
    60    26    61    1
    61    26    27    1
    62    26    62    1
    63    63    27    1
    64    27    28    1
    65    28    66    1
    66    28    65    1
    67    28    29    1
    68    29     2    3
@<TRIPOS>MOLECULE
6kpf_ligand_run_4.pdb
 66 68 0 0 0
SMALL
GASTEIGER

@<TRIPOS>ATOM
      1    C      110.2040  109.5150  125.3030 C.ar    2  LIG2       -0.0157
      2    N      108.2920  112.1090  131.3620 N.1     2  LIG2       -0.1966
      3    O      110.1140  107.1720  125.8200 O.3     2  LIG2       -0.4855
      4    C      109.9090  110.6180  124.5270 C.ar    2  LIG2       -0.0348
      5    O      104.7130  103.9700  121.4270 O.3     2  LIG2       -0.3947
      6    C      109.1690  110.5740  123.3610 C.ar    2  LIG2       -0.0160
      7    O      108.0420  109.2860  121.9130 O.3     2  LIG2       -0.5064
      8    C      108.7640  109.2660  123.0780 C.ar    2  LIG2        0.1240
      9    C      108.9990  108.0530  123.8090 C.ar    2  LIG2        0.0391
     10    C      109.7810  108.2210  124.9970 C.ar    2  LIG2        0.1285
     11    C      108.5680  106.5990  123.5190 C.3     2  LIG2       -0.0022
     12    C      108.2970  105.8690  124.8680 C.3     2  LIG2        0.0054
     13    C      109.6090  105.8180  125.6550 C.3     2  LIG2        0.1084
     14    C      107.2920  106.3590  122.6730 C.3     2  LIG2       -0.0407
     15    C      106.6800  104.9870  122.4090 C.3     2  LIG2       -0.0172
     16    C      106.5050  104.3300  123.7850 C.3     2  LIG2       -0.0477
     17    C      107.7430  104.4300  124.7020 C.3     2  LIG2       -0.0457
     18    C      105.3220  105.2100  121.7450 C.3     2  LIG2        0.0470
     19    C      109.3560  105.2260  127.0460 C.3     2  LIG2       -0.0249
     20    C      110.6380  104.9680  124.9020 C.3     2  LIG2       -0.0249
     21    C      110.4560  111.9840  125.0110 C.3     2  LIG2       -0.0096
     22    C      110.0360  112.2270  126.4940 C.3     2  LIG2       -0.0439
     23    C      109.9590  113.1500  124.1330 C.3     2  LIG2       -0.0558
     24    C      111.9890  111.9400  124.8990 C.3     2  LIG2       -0.0558
     25    C      110.0280  113.7290  126.7930 C.3     2  LIG2       -0.0522
     26    C      109.6130  113.9860  128.2480 C.3     2  LIG2       -0.0521
     27    C      108.1020  113.7510  128.3850 C.3     2  LIG2       -0.0402
     28    C      107.6570  114.1170  129.8180 C.3     2  LIG2        0.0348
     29    C      108.0310  113.0120  130.6850 C.1     2  LIG2        0.0625
     30    H      110.7920  109.6290  126.2020 H       2  LIG2        0.0657
     31    H      103.9080  104.1270  120.9280 H       2  LIG2        0.2094
     32    H      108.9800  111.4830  122.8070 H       2  LIG2        0.0657
     33    H      108.0270  110.1790  121.5600 H       2  LIG2        0.2921
     34    H      109.3980  106.0940  123.0240 H       2  LIG2        0.0355
     35    H      107.5750  106.4540  125.4370 H       2  LIG2        0.0345
     36    H      107.4080  106.8750  121.7210 H       2  LIG2        0.0275
     37    H      106.5070  107.0220  123.0380 H       2  LIG2        0.0275
     38    H      107.3300  104.3880  121.7720 H       2  LIG2        0.0323
     39    H      106.2370  103.2810  123.6530 H       2  LIG2        0.0269
     40    H      105.6450  104.7710  124.2890 H       2  LIG2        0.0269
     41    H      107.4990  104.0220  125.6830 H       2  LIG2        0.0269
     42    H      108.5310  103.7810  124.3190 H       2  LIG2        0.0269
     43    H      104.6740  105.7690  122.4200 H       2  LIG2        0.0560
     44    H      105.4540  105.7930  120.8340 H       2  LIG2        0.0560
     45    H      108.9760  104.2090  126.9440 H       2  LIG2        0.0268
     46    H      110.2890  105.2110  127.6100 H       2  LIG2        0.0268
     47    H      108.6230  105.8360  127.5730 H       2  LIG2        0.0268
     48    H      110.2550  103.9550  124.7810 H       2  LIG2        0.0268
     49    H      110.8240  105.4050  123.9200 H       2  LIG2        0.0268
     50    H      111.5700  104.9380  125.4670 H       2  LIG2        0.0268
     51    H      110.7420  111.7290  127.1580 H       2  LIG2        0.0274
     52    H      109.0400  111.8180  126.6600 H       2  LIG2        0.0274
     53    H      110.3670  114.0880  124.5090 H       2  LIG2        0.0238
     54    H      110.2870  112.9980  123.1060 H       2  LIG2        0.0238
     55    H      108.8700  113.1900  124.1650 H       2  LIG2        0.0238
     56    H      112.4050  112.8900  125.2330 H       2  LIG2        0.0238
     57    H      112.3760  111.1360  125.5230 H       2  LIG2        0.0238
     58    H      112.2730  111.7650  123.8620 H       2  LIG2        0.0238
     59    H      109.3280  114.2280  126.1220 H       2  LIG2        0.0266
     60    H      111.0230  114.1380  126.6210 H       2  LIG2        0.0266
     61    H      109.8460  115.0170  128.5160 H       2  LIG2        0.0266
     62    H      110.1480  113.3000  128.9050 H       2  LIG2        0.0266
     63    H      107.8790  112.7020  128.1920 H       2  LIG2        0.0275
     64    H      107.5710  114.3780  127.6690 H       2  LIG2        0.0275
     65    H      106.5750  114.2450  129.8400 H       2  LIG2        0.0418
     66    H      108.1740  115.0210  130.1390 H       2  LIG2        0.0418
@<TRIPOS>BOND
     1    44    18    1
     2    31     5    1
     3     5    18    1
     4    33     7    1
     5    36    14    1
     6    18    15    1
     7    18    43    1
     8    38    15    1
     9     7     8    1
    10    15    14    1
    11    15    16    1
    12    14    37    1
    13    14    11    1
    14    32     6    1
    15    34    11    1
    16     8     6   ar
    17     8     9   ar
    18    54    23    1
    19     6     4   ar
    20    11     9    1
    21    11    12    1
    22    39    16    1
    23    16    40    1
    24    16    17    1
    25     9    10   ar
    26    58    24    1
    27    49    20    1
    28    23    55    1
    29    23    53    1
    30    23    21    1
    31    42    17    1
    32     4    21    1
    33     4     1   ar
    34    17    12    1
    35    17    41    1
    36    48    20    1
    37    12    35    1
    38    12    13    1
    39    24    21    1
    40    24    56    1
    41    24    57    1
    42    20    50    1
    43    20    13    1
    44    10     1   ar
    45    10     3    1
    46    21    22    1
    47     1    30    1
    48    13     3    1
    49    13    19    1
    50    59    25    1
    51    22    52    1
    52    22    25    1
    53    22    51    1
    54    60    25    1
    55    25    26    1
    56    45    19    1
    57    19    47    1
    58    19    46    1
    59    64    27    1
    60    63    27    1
    61    26    27    1
    62    26    61    1
    63    26    62    1
    64    27    28    1
    65    28    65    1
    66    28    66    1
    67    28    29    1
    68    29     2    3
@<TRIPOS>MOLECULE
6kpf_ligand_run_6.pdb
 66 68 0 0 0
SMALL
GASTEIGER

@<TRIPOS>ATOM
      1    C      111.3800  108.5720  125.2900 C.ar    2  LIG2       -0.0157
      2    N      106.0150  103.1710  122.2240 N.1     2  LIG2       -0.1966
      3    O      111.2840  110.8010  124.4010 O.3     2  LIG2       -0.4855
      4    C      111.2630  107.6450  126.3060 C.ar    2  LIG2       -0.0348
      5    O      108.5390  113.4560  130.4890 O.3     2  LIG2       -0.3947
      6    C      110.9090  107.9540  127.6060 C.ar    2  LIG2       -0.0160
      7    O      110.3460  109.5720  129.0520 O.3     2  LIG2       -0.5064
      8    C      110.6880  109.3280  127.7470 C.ar    2  LIG2        0.1240
      9    C      110.7670  110.3770  126.7710 C.ar    2  LIG2        0.0391
     10    C      111.1480  109.9380  125.4610 C.ar    2  LIG2        0.1285
     11    C      110.5330  111.8980  126.9000 C.3     2  LIG2       -0.0022
     12    C      109.9170  112.4330  125.5730 C.3     2  LIG2        0.0054
     13    C      110.9350  112.2120  124.4510 C.3     2  LIG2        0.1084
     14    C      109.5830  112.4090  128.0130 C.3     2  LIG2       -0.0407
     15    C      109.1630  113.8650  128.1840 C.3     2  LIG2       -0.0172
     16    C      108.6270  114.3140  126.8180 C.3     2  LIG2       -0.0477
     17    C      109.5260  113.9320  125.6220 C.3     2  LIG2       -0.0457
     18    C      108.0540  113.9030  129.2340 C.3     2  LIG2        0.0470
     19    C      110.3160  112.6030  123.1050 C.3     2  LIG2       -0.0249
     20    C      112.1920  113.0490  124.7140 C.3     2  LIG2       -0.0249
     21    C      111.5570  106.1680  125.9460 C.3     2  LIG2       -0.0096
     22    C      110.6980  105.7430  124.7140 C.3     2  LIG2       -0.0439
     23    C      111.2750  105.2170  127.1270 C.3     2  LIG2       -0.0558
     24    C      113.0530  106.0560  125.6080 C.3     2  LIG2       -0.0558
     25    C      109.2100  105.8520  125.0540 C.3     2  LIG2       -0.0522
     26    C      108.3540  105.6800  123.7920 C.3     2  LIG2       -0.0521
     27    C      106.8740  105.8310  124.1670 C.3     2  LIG2       -0.0402
     28    C      106.0090  105.6940  122.8960 C.3     2  LIG2        0.0348
     29    C      105.9890  104.2870  122.5320 C.1     2  LIG2        0.0625
     30    H      111.6650  108.2540  124.2980 H       2  LIG2        0.0657
     31    H      107.8190  113.4450  131.1240 H       2  LIG2        0.2094
     32    H      110.8380  107.1710  128.3470 H       2  LIG2        0.0657
     33    H      110.7870  110.3700  129.3560 H       2  LIG2        0.2921
     34    H      111.5010  112.3770  127.0380 H       2  LIG2        0.0355
     35    H      109.0230  111.8500  125.3490 H       2  LIG2        0.0345
     36    H      109.9460  112.0390  128.9720 H       2  LIG2        0.0275
     37    H      108.6870  111.7890  128.0130 H       2  LIG2        0.0275
     38    H      110.0090  114.4800  128.4900 H       2  LIG2        0.0323
     39    H      108.4750  115.3930  126.8270 H       2  LIG2        0.0269
     40    H      107.6300  113.8980  126.6670 H       2  LIG2        0.0269
     41    H      109.0270  114.2070  124.6930 H       2  LIG2        0.0269
     42    H      110.4310  114.5410  125.6420 H       2  LIG2        0.0269
     43    H      107.6810  114.9230  129.3320 H       2  LIG2        0.0560
     44    H      107.2300  113.2650  128.9160 H       2  LIG2        0.0560
     45    H      110.0460  113.6590  123.1220 H       2  LIG2        0.0268
     46    H      111.0370  112.4250  122.3070 H       2  LIG2        0.0268
     47    H      109.4230  112.0040  122.9270 H       2  LIG2        0.0268
     48    H      111.9250  114.1050  124.7500 H       2  LIG2        0.0268
     49    H      112.6350  112.7540  125.6650 H       2  LIG2        0.0268
     50    H      112.9130  112.8850  123.9120 H       2  LIG2        0.0268
     51    H      110.9350  104.7140  124.4440 H       2  LIG2        0.0274
     52    H      110.9260  106.3940  123.8710 H       2  LIG2        0.0274
     53    H      111.4940  104.1920  126.8290 H       2  LIG2        0.0238
     54    H      111.9040  105.4910  127.9730 H       2  LIG2        0.0238
     55    H      110.2260  105.2950  127.4130 H       2  LIG2        0.0238
     56    H      113.2910  105.0250  125.3490 H       2  LIG2        0.0238
     57    H      113.2840  106.7050  124.7630 H       2  LIG2        0.0238
     58    H      113.6440  106.3600  126.4710 H       2  LIG2        0.0238
     59    H      109.0090  106.8270  125.4990 H       2  LIG2        0.0266
     60    H      108.9460  105.0820  125.7790 H       2  LIG2        0.0266
     61    H      108.5230  104.6880  123.3710 H       2  LIG2        0.0266
     62    H      108.6240  106.4450  123.0630 H       2  LIG2        0.0266
     63    H      106.7110  106.8120  124.6140 H       2  LIG2        0.0275
     64    H      106.5990  105.0530  124.8790 H       2  LIG2        0.0275
     65    H      106.4580  106.2710  122.0870 H       2  LIG2        0.0418
     66    H      104.9930  106.0280  123.1100 H       2  LIG2        0.0418
@<TRIPOS>BOND
     1    65    28    1
     2     2    29    3
     3    46    19    1
     4    29    28    1
     5    28    66    1
     6    28    27    1
     7    47    19    1
     8    62    26    1
     9    19    45    1
    10    19    13    1
    11    61    26    1
    12    26    27    1
    13    26    25    1
    14    52    22    1
    15    50    20    1
    16    27    63    1
    17    27    64    1
    18    30     1    1
    19     3    13    1
    20     3    10    1
    21    51    22    1
    22    13    20    1
    23    13    12    1
    24    41    17    1
    25    20    48    1
    26    20    49    1
    27    22    25    1
    28    22    21    1
    29    57    24    1
    30    25    59    1
    31    25    60    1
    32     1    10   ar
    33     1     4   ar
    34    56    24    1
    35    35    12    1
    36    10     9   ar
    37    12    17    1
    38    12    11    1
    39    24    21    1
    40    24    58    1
    41    17    42    1
    42    17    16    1
    43    21     4    1
    44    21    23    1
    45     4     6   ar
    46    40    16    1
    47     9    11    1
    48     9     8   ar
    49    16    39    1
    50    16    15    1
    51    53    23    1
    52    11    34    1
    53    11    14    1
    54    23    55    1
    55    23    54    1
    56     6     8   ar
    57     6    32    1
    58     8     7    1
    59    37    14    1
    60    14    15    1
    61    14    36    1
    62    15    38    1
    63    15    18    1
    64    44    18    1
    65     7    33    1
    66    18    43    1
    67    18     5    1
    68     5    31    1
@<TRIPOS>MOLECULE
6kpf_ligand_run_10.pdb
 66 68 0 0 0
SMALL
GASTEIGER

@<TRIPOS>ATOM
      1    C      111.4630  110.3360  125.7800 C.ar    2  LIG2       -0.0157
      2    N      112.3030  119.8270  127.7620 N.1     2  LIG2       -0.1966
      3    O      111.8480  108.0930  126.5450 O.3     2  LIG2       -0.4855
      4    C      110.8260  111.2790  124.9990 C.ar    2  LIG2       -0.0348
      5    O      105.8300  105.8720  125.0180 O.3     2  LIG2       -0.3947
      6    C      109.8350  110.9890  124.0800 C.ar    2  LIG2       -0.0160
      7    O      108.5860  109.3900  123.1250 O.3     2  LIG2       -0.5064
      8    C      109.5690  109.6160  124.0530 C.ar    2  LIG2        0.1240
      9    C      110.1530  108.5510  124.8200 C.ar    2  LIG2        0.0391
     10    C      111.1720  108.9720  125.7340 C.ar    2  LIG2        0.1285
     11    C      109.8820  107.0310  124.8070 C.3     2  LIG2       -0.0022
     12    C      110.0640  106.4700  126.2490 C.3     2  LIG2        0.0054
     13    C      111.5230  106.6800  126.6620 C.3     2  LIG2        0.1084
     14    C      108.4850  106.5320  124.3590 C.3     2  LIG2       -0.0407
     15    C      108.0350  105.0750  124.4110 C.3     2  LIG2       -0.0172
     16    C      108.3050  104.6000  125.8460 C.3     2  LIG2       -0.0477
     17    C      109.7040  104.9680  126.3880 C.3     2  LIG2       -0.0457
     18    C      106.5370  105.0450  124.1100 C.3     2  LIG2        0.0470
     19    C      111.7120  106.2620  128.1240 C.3     2  LIG2       -0.0249
     20    C      112.4470  105.8570  125.7570 C.3     2  LIG2       -0.0249
     21    C      111.2690  112.7520  125.1750 C.3     2  LIG2       -0.0096
     22    C      111.2360  113.1380  126.6860 C.3     2  LIG2       -0.0439
     23    C      110.3800  113.7240  124.3720 C.3     2  LIG2       -0.0558
     24    C      112.7020  112.8790  124.6310 C.3     2  LIG2       -0.0558
     25    C      111.9730  114.4630  126.9020 C.3     2  LIG2       -0.0522
     26    C      111.4880  115.1460  128.1880 C.3     2  LIG2       -0.0521
     27    C      112.2330  116.4760  128.3580 C.3     2  LIG2       -0.0402
     28    C      112.0710  117.3190  127.0740 C.3     2  LIG2        0.0348
     29    C      112.2250  118.7160  127.4480 C.1     2  LIG2        0.0625
     30    H      112.2320  110.6400  126.4750 H       2  LIG2        0.0657
     31    H      104.9320  105.9990  124.7020 H       2  LIG2        0.2094
     32    H      109.3830  111.7830  123.5050 H       2  LIG2        0.0657
     33    H      108.3140  110.2250  122.7370 H       2  LIG2        0.2921
     34    H      110.6280  106.5610  124.1670 H       2  LIG2        0.0355
     35    H      109.4280  107.0420  126.9240 H       2  LIG2        0.0345
     36    H      108.2840  106.9200  123.3610 H       2  LIG2        0.0275
     37    H      107.7270  107.1440  124.8470 H       2  LIG2        0.0275
     38    H      108.5880  104.4720  123.6920 H       2  LIG2        0.0323
     39    H      108.1700  103.5190  125.8990 H       2  LIG2        0.0269
     40    H      107.5420  105.0050  126.5100 H       2  LIG2        0.0269
     41    H      109.7730  104.6750  127.4350 H       2  LIG2        0.0269
     42    H      110.4580  104.3670  125.8790 H       2  LIG2        0.0269
     43    H      106.3650  105.3930  123.0920 H       2  LIG2        0.0560
     44    H      106.1710  104.0220  124.1910 H       2  LIG2        0.0560
     45    H      111.4730  105.2050  128.2340 H       2  LIG2        0.0268
     46    H      112.7480  106.4330  128.4200 H       2  LIG2        0.0268
     47    H      111.0520  106.8510  128.7600 H       2  LIG2        0.0268
     48    H      112.1990  104.8000  125.8490 H       2  LIG2        0.0268
     49    H      112.3170  106.1720  124.7210 H       2  LIG2        0.0268
     50    H      113.4830  106.0140  126.0560 H       2  LIG2        0.0268
     51    H      111.7180  112.3550  127.2710 H       2  LIG2        0.0274
     52    H      110.2020  113.2410  127.0120 H       2  LIG2        0.0274
     53    H      110.7270  114.7460  124.5260 H       2  LIG2        0.0238
     54    H      110.4360  113.4780  123.3130 H       2  LIG2        0.0238
     55    H      109.3480  113.6370  124.7120 H       2  LIG2        0.0238
     56    H      113.0430  113.9080  124.7410 H       2  LIG2        0.0238
     57    H      113.3620  112.2160  125.1890 H       2  LIG2        0.0238
     58    H      112.7170  112.6020  123.5770 H       2  LIG2        0.0238
     59    H      111.7930  115.1210  126.0510 H       2  LIG2        0.0266
     60    H      113.0440  114.2750  126.9720 H       2  LIG2        0.0266
     61    H      111.6960  114.5010  129.0420 H       2  LIG2        0.0266
     62    H      110.4170  115.3360  128.1160 H       2  LIG2        0.0266
     63    H      113.2910  116.2800  128.5330 H       2  LIG2        0.0275
     64    H      111.8160  117.0210  129.2050 H       2  LIG2        0.0275
     65    H      111.0750  117.1620  126.6600 H       2  LIG2        0.0418
     66    H      112.8500  117.0480  126.3610 H       2  LIG2        0.0418
@<TRIPOS>BOND
     1    33     7    1
     2    43    18    1
     3     7     8    1
     4    54    23    1
     5    36    14    1
     6    32     6    1
     7    58    24    1
     8    38    15    1
     9     8     6   ar
    10     8     9   ar
    11     6     4   ar
    12    18    44    1
    13    18    15    1
    14    18     5    1
    15    34    11    1
    16    14    15    1
    17    14    11    1
    18    14    37    1
    19    23    53    1
    20    23    55    1
    21    23    21    1
    22    15    16    1
    23    24    56    1
    24    24    21    1
    25    24    57    1
    26    31     5    1
    27    49    20    1
    28    11     9    1
    29    11    12    1
    30     9    10   ar
    31     4    21    1
    32     4     1   ar
    33    21    22    1
    34    10     1   ar
    35    10     3    1
    36    20    48    1
    37    20    50    1
    38    20    13    1
    39     1    30    1
    40    16    39    1
    41    16    17    1
    42    16    40    1
    43    42    17    1
    44    59    25    1
    45    12    17    1
    46    12    13    1
    47    12    35    1
    48    66    28    1
    49    17    41    1
    50     3    13    1
    51    65    28    1
    52    13    19    1
    53    22    25    1
    54    22    52    1
    55    22    51    1
    56    25    60    1
    57    25    26    1
    58    28    29    1
    59    28    27    1
    60    29     2    3
    61    62    26    1
    62    19    45    1
    63    19    46    1
    64    19    47    1
    65    26    27    1
    66    26    61    1
    67    27    63    1
    68    27    64    1
@<TRIPOS>MOLECULE
6kpf_ligand_run_15.pdb
 66 68 0 0 0
SMALL
GASTEIGER

@<TRIPOS>ATOM
      1    C      110.1760  109.4460  124.9690 C.ar    2  LIG2       -0.0157
      2    N      112.2910  118.3330  127.6040 N.1     2  LIG2       -0.1966
      3    O      110.1060  107.1280  125.5930 O.3     2  LIG2       -0.4855
      4    C      109.8380  110.5170  124.1660 C.ar    2  LIG2       -0.0348
      5    O      105.1260  105.4740  120.5840 O.3     2  LIG2       -0.3947
      6    C      109.0230  110.4290  123.0530 C.ar    2  LIG2       -0.0160
      7    O      107.7960  109.0890  121.7400 O.3     2  LIG2       -0.5064
      8    C      108.5930  109.1130  122.8550 C.ar    2  LIG2        0.1240
      9    C      108.8670  107.9310  123.6220 C.ar    2  LIG2        0.0391
     10    C      109.7260  108.1430  124.7480 C.ar    2  LIG2        0.1285
     11    C      108.4100  106.4700  123.4240 C.3     2  LIG2       -0.0022
     12    C      108.2230  105.8010  124.8190 C.3     2  LIG2        0.0054
     13    C      109.5830  105.7730  125.5210 C.3     2  LIG2        0.1084
     14    C      107.0790  106.2050  122.6750 C.3     2  LIG2       -0.0407
     15    C      106.4430  104.8280  122.5120 C.3     2  LIG2       -0.0172
     16    C      106.3540  104.2330  123.9240 C.3     2  LIG2       -0.0477
     17    C      107.6500  104.3620  124.7540 C.3     2  LIG2       -0.0457
     18    C      105.0460  105.0340  121.9280 C.3     2  LIG2        0.0470
     19    C      109.4180  105.2440  126.9500 C.3     2  LIG2       -0.0249
     20    C      110.5560  104.8820  124.7400 C.3     2  LIG2       -0.0249
     21    C      110.4240  111.8970  124.5530 C.3     2  LIG2       -0.0096
     22    C      110.2960  112.1140  126.0930 C.3     2  LIG2       -0.0439
     23    C      109.7240  113.0520  123.8080 C.3     2  LIG2       -0.0558
     24    C      111.9050  111.9090  124.1420 C.3     2  LIG2       -0.0558
     25    C      110.5750  113.5790  126.4380 C.3     2  LIG2       -0.0522
     26    C      110.9450  113.7220  127.9200 C.3     2  LIG2       -0.0521
     27    C      111.0950  115.2120  128.2550 C.3     2  LIG2       -0.0402
     28    C      112.4400  115.7280  127.6990 C.3     2  LIG2        0.0348
     29    C      112.3710  117.1790  127.6670 C.1     2  LIG2        0.0625
     30    H      110.8220  109.5930  125.8220 H       2  LIG2        0.0657
     31    H      104.2540  105.4450  120.1850 H       2  LIG2        0.2094
     32    H      108.8030  111.3140  122.4740 H       2  LIG2        0.0657
     33    H      107.8410  109.9380  121.2940 H       2  LIG2        0.2921
     34    H      109.2020  105.9370  122.9000 H       2  LIG2        0.0355
     35    H      107.5430  106.4170  125.4080 H       2  LIG2        0.0345
     36    H      107.1360  106.6780  121.6950 H       2  LIG2        0.0275
     37    H      106.3240  106.8900  123.0610 H       2  LIG2        0.0275
     38    H      107.0470  104.1960  121.8610 H       2  LIG2        0.0323
     39    H      106.0720  103.1820  123.8550 H       2  LIG2        0.0269
     40    H      105.5320  104.7030  124.4630 H       2  LIG2        0.0269
     41    H      107.4690  103.9990  125.7650 H       2  LIG2        0.0269
     42    H      108.4070  103.6900  124.3480 H       2  LIG2        0.0269
     43    H      104.4930  104.0950  121.9700 H       2  LIG2        0.0560
     44    H      104.5100  105.7750  122.5210 H       2  LIG2        0.0560
     45    H      109.0260  104.2270  126.9180 H       2  LIG2        0.0268
     46    H      110.3850  105.2450  127.4520 H       2  LIG2        0.0268
     47    H      108.7250  105.8830  127.4970 H       2  LIG2        0.0268
     48    H      110.1600  103.8680  124.6890 H       2  LIG2        0.0268
     49    H      110.6790  105.2740  123.7310 H       2  LIG2        0.0268
     50    H      111.5220  104.8680  125.2450 H       2  LIG2        0.0268
     51    H      111.0130  111.4760  126.6100 H       2  LIG2        0.0274
     52    H      109.2890  111.8510  126.4140 H       2  LIG2        0.0274
     53    H      110.1670  114.0010  124.1100 H       2  LIG2        0.0238
     54    H      109.8490  112.9200  122.7330 H       2  LIG2        0.0238
     55    H      108.6620  113.0530  124.0530 H       2  LIG2        0.0238
     56    H      112.3470  112.8710  124.4010 H       2  LIG2        0.0238
     57    H      112.4340  111.1140  124.6650 H       2  LIG2        0.0238
     58    H      111.9850  111.7520  123.0660 H       2  LIG2        0.0238
     59    H      109.6890  114.1770  126.2250 H       2  LIG2        0.0266
     60    H      111.3960  113.9460  125.8210 H       2  LIG2        0.0266
     61    H      111.8890  113.2110  128.1110 H       2  LIG2        0.0266
     62    H      110.1560  113.2900  128.5350 H       2  LIG2        0.0266
     63    H      111.0750  115.3450  129.3370 H       2  LIG2        0.0275
     64    H      110.2770  115.7710  127.8010 H       2  LIG2        0.0275
     65    H      112.5830  115.3500  126.6860 H       2  LIG2        0.0418
     66    H      113.2490  115.4170  128.3600 H       2  LIG2        0.0418
@<TRIPOS>BOND
     1    31     5    1
     2     5    18    1
     3    33     7    1
     4    36    14    1
     5     7     8    1
     6    38    15    1
     7    18    43    1
     8    18    15    1
     9    18    44    1
    10    32     6    1
    11    15    14    1
    12    15    16    1
    13    14    37    1
    14    14    11    1
    15    54    23    1
    16     8     6   ar
    17     8     9   ar
    18    34    11    1
    19     6     4   ar
    20    58    24    1
    21    11     9    1
    22    11    12    1
    23     9    10   ar
    24    49    20    1
    25    23    55    1
    26    23    53    1
    27    23    21    1
    28    39    16    1
    29    16    40    1
    30    16    17    1
    31    24    56    1
    32    24    21    1
    33    24    57    1
    34     4    21    1
    35     4     1   ar
    36    42    17    1
    37    21    22    1
    38    48    20    1
    39    20    50    1
    40    20    13    1
    41    10     1   ar
    42    10     3    1
    43    17    12    1
    44    17    41    1
    45    12    35    1
    46    12    13    1
    47     1    30    1
    48    13     3    1
    49    13    19    1
    50    60    25    1
    51    22    52    1
    52    22    25    1
    53    22    51    1
    54    59    25    1
    55    25    26    1
    56    65    28    1
    57    45    19    1
    58    19    46    1
    59    19    47    1
    60     2    29    3
    61    29    28    1
    62    28    27    1
    63    28    66    1
    64    64    27    1
    65    26    61    1
    66    26    27    1
    67    26    62    1
    68    27    63    1
@<TRIPOS>MOLECULE
6kpf_ligand_run_3.pdb
 66 68 0 0 0
SMALL
GASTEIGER

@<TRIPOS>ATOM
      1    C      107.7180  104.8730  124.3210 C.ar    2  LIG2       -0.0157
      2    N       99.1670  102.5770  123.2270 N.1     2  LIG2       -0.1966
      3    O      109.2510  104.9230  126.1690 O.3     2  LIG2       -0.4855
      4    C      107.0110  105.4590  123.2910 C.ar    2  LIG2       -0.0348
      5    O      113.0780  111.5170  125.9460 O.3     2  LIG2       -0.3947
      6    C      107.0640  106.8040  122.9750 C.ar    2  LIG2       -0.0160
      7    O      107.9380  108.8060  123.4810 O.3     2  LIG2       -0.5064
      8    C      107.9300  107.4830  123.8390 C.ar    2  LIG2        0.1240
      9    C      108.7200  106.9830  124.9280 C.ar    2  LIG2        0.0391
     10    C      108.5790  105.5770  125.1650 C.ar    2  LIG2        0.1285
     11    C      109.6780  107.7080  125.8980 C.3     2  LIG2       -0.0022
     12    C      110.8490  106.7510  126.2690 C.3     2  LIG2        0.0054
     13    C      110.2640  105.5450  127.0070 C.3     2  LIG2        0.1084
     14    C      110.3670  109.0120  125.4210 C.3     2  LIG2       -0.0407
     15    C      111.4240  109.7680  126.2190 C.3     2  LIG2       -0.0172
     16    C      112.4990  108.7340  126.5830 C.3     2  LIG2       -0.0477
     17    C      111.9440  107.4090  127.1490 C.3     2  LIG2       -0.0457
     18    C      112.0060  110.8460  125.3060 C.3     2  LIG2        0.0470
     19    C      111.3670  104.5140  127.2730 C.3     2  LIG2       -0.0249
     20    C      109.6380  105.9960  128.3320 C.3     2  LIG2       -0.0249
     21    C      106.0990  104.5330  122.4500 C.3     2  LIG2       -0.0096
     22    C      104.6100  104.9730  122.6040 C.3     2  LIG2       -0.0439
     23    C      106.2460  103.0520  122.8550 C.3     2  LIG2       -0.0558
     24    C      106.5330  104.6570  120.9800 C.3     2  LIG2       -0.0558
     25    C      103.7430  104.2520  121.5680 C.3     2  LIG2       -0.0522
     26    C      102.2570  104.5540  121.8050 C.3     2  LIG2       -0.0521
     27    C      101.4130  103.6450  120.9020 C.3     2  LIG2       -0.0402
     28    C      101.1940  102.2880  121.6060 C.3     2  LIG2        0.0348
     29    C      100.0500  102.4370  122.4910 C.1     2  LIG2        0.0625
     30    H      107.6210  103.8140  124.5090 H       2  LIG2        0.0657
     31    H      113.4320  112.1890  125.3590 H       2  LIG2        0.2094
     32    H      106.4800  107.1890  122.1520 H       2  LIG2        0.0657
     33    H      107.7240  108.8870  122.5480 H       2  LIG2        0.2921
     34    H      109.1270  107.9340  126.8100 H       2  LIG2        0.0355
     35    H      111.3120  106.4000  125.3460 H       2  LIG2        0.0345
     36    H      109.5940  109.7180  125.1160 H       2  LIG2        0.0275
     37    H      110.7450  108.8540  124.4120 H       2  LIG2        0.0275
     38    H      110.9910  110.2110  127.1160 H       2  LIG2        0.0323
     39    H      113.1920  109.1720  127.3020 H       2  LIG2        0.0269
     40    H      113.1100  108.5240  125.7060 H       2  LIG2        0.0269
     41    H      112.7640  106.7060  127.2910 H       2  LIG2        0.0269
     42    H      111.5470  107.5810  128.1500 H       2  LIG2        0.0269
     43    H      112.3630  110.3880  124.3840 H       2  LIG2        0.0560
     44    H      111.2280  111.5660  125.0530 H       2  LIG2        0.0560
     45    H      112.1380  104.9610  127.9000 H       2  LIG2        0.0268
     46    H      110.9410  103.6480  127.7810 H       2  LIG2        0.0268
     47    H      111.8070  104.2000  126.3270 H       2  LIG2        0.0268
     48    H      110.4010  106.4600  128.9560 H       2  LIG2        0.0268
     49    H      108.8440  106.7170  128.1330 H       2  LIG2        0.0268
     50    H      109.2210  105.1320  128.8510 H       2  LIG2        0.0268
     51    H      104.5320  106.0500  122.4570 H       2  LIG2        0.0274
     52    H      104.2600  104.7240  123.6060 H       2  LIG2        0.0274
     53    H      105.5880  102.4390  122.2390 H       2  LIG2        0.0238
     54    H      107.2780  102.7360  122.7080 H       2  LIG2        0.0238
     55    H      105.9750  102.9340  123.9040 H       2  LIG2        0.0238
     56    H      105.9090  104.0140  120.3600 H       2  LIG2        0.0238
     57    H      106.4250  105.6910  120.6550 H       2  LIG2        0.0238
     58    H      107.5750  104.3530  120.8820 H       2  LIG2        0.0238
     59    H      103.9110  103.1770  121.6390 H       2  LIG2        0.0266
     60    H      104.0260  104.5800  120.5680 H       2  LIG2        0.0266
     61    H      102.0550  105.5970  121.5610 H       2  LIG2        0.0266
     62    H      102.0090  104.3600  122.8490 H       2  LIG2        0.0266
     63    H      101.9350  103.4840  119.9590 H       2  LIG2        0.0275
     64    H      100.4490  104.1150  120.7120 H       2  LIG2        0.0275
     65    H      102.0770  102.0360  122.1930 H       2  LIG2        0.0418
     66    H      100.9770  101.5230  120.8600 H       2  LIG2        0.0418
@<TRIPOS>BOND
     1    63    27    1
     2    56    24    1
     3    60    25    1
     4    57    24    1
     5    64    27    1
     6    66    28    1
     7    58    24    1
     8    27    28    1
     9    27    26    1
    10    24    21    1
    11    61    26    1
    12    25    59    1
    13    25    26    1
    14    25    22    1
    15    28    65    1
    16    28    29    1
    17    26    62    1
    18    32     6    1
    19    53    23    1
    20    21    22    1
    21    21    23    1
    22    21     4    1
    23    51    22    1
    24    29     2    3
    25    33     7    1
    26    22    52    1
    27    54    23    1
    28    23    55    1
    29     6     4   ar
    30     6     8   ar
    31     4     1   ar
    32     7     8    1
    33     8     9   ar
    34     1    30    1
    35     1    10   ar
    36    43    18    1
    37    37    14    1
    38     9    10   ar
    39     9    11    1
    40    44    18    1
    41    36    14    1
    42    10     3    1
    43    18     5    1
    44    18    15    1
    45    35    12    1
    46    31     5    1
    47    14    11    1
    48    14    15    1
    49    40    16    1
    50    11    12    1
    51    11    34    1
    52     3    13    1
    53    15    16    1
    54    15    38    1
    55    12    13    1
    56    12    17    1
    57    47    19    1
    58    16    17    1
    59    16    39    1
    60    13    19    1
    61    13    20    1
    62    17    41    1
    63    17    42    1
    64    19    46    1
    65    19    45    1
    66    49    20    1
    67    20    50    1
    68    20    48    1
@<TRIPOS>MOLECULE
6kpf_ligand_run_20.pdb
 66 68 0 0 0
SMALL
GASTEIGER

@<TRIPOS>ATOM
      1    C      109.0290  108.6370  124.2890 C.ar    2  LIG2       -0.0157
      2    N      102.2370  106.2530  121.6090 N.1     2  LIG2       -0.1966
      3    O      108.7450  110.8550  123.4150 O.3     2  LIG2       -0.4855
      4    C      109.6040  107.7110  125.1360 C.ar    2  LIG2       -0.0348
      5    O      112.3580  115.6970  128.1950 O.3     2  LIG2       -0.3947
      6    C      110.5740  108.0100  126.0750 C.ar    2  LIG2       -0.0160
      7    O      111.8550  109.6060  126.9910 O.3     2  LIG2       -0.5064
      8    C      110.8890  109.3730  126.0460 C.ar    2  LIG2        0.1240
      9    C      110.3550  110.4230  125.2260 C.ar    2  LIG2        0.0391
     10    C      109.3620  109.9930  124.2880 C.ar    2  LIG2        0.1285
     11    C      110.6870  111.9300  125.1710 C.3     2  LIG2       -0.0022
     12    C      109.3920  112.7240  124.8270 C.3     2  LIG2        0.0054
     13    C      108.9280  112.2980  123.4320 C.3     2  LIG2        0.1084
     14    C      111.2440  112.6120  126.4460 C.3     2  LIG2       -0.0407
     15    C      111.5020  114.1100  126.5780 C.3     2  LIG2       -0.0172
     16    C      110.1950  114.8020  126.1650 C.3     2  LIG2       -0.0477
     17    C      109.5730  114.2640  124.8580 C.3     2  LIG2       -0.0457
     18    C      111.8190  114.3950  128.0450 C.3     2  LIG2        0.0470
     19    C      107.5830  112.9580  123.1090 C.3     2  LIG2       -0.0249
     20    C      109.9750  112.7010  122.3860 C.3     2  LIG2       -0.0249
     21    C      109.1200  106.2460  125.0070 C.3     2  LIG2       -0.0096
     22    C      107.9900  106.1540  123.9350 C.3     2  LIG2       -0.0439
     23    C      108.6080  105.6850  126.3490 C.3     2  LIG2       -0.0558
     24    C      110.3230  105.3910  124.5770 C.3     2  LIG2       -0.0558
     25    C      107.4270  104.7310  123.8920 C.3     2  LIG2       -0.0522
     26    C      106.6500  104.4990  122.5890 C.3     2  LIG2       -0.0521
     27    C      105.3160  105.2520  122.6620 C.3     2  LIG2       -0.0402
     28    C      104.5120  104.9950  121.3690 C.3     2  LIG2        0.0348
     29    C      103.2550  105.7140  121.4870 C.1     2  LIG2        0.0625
     30    H      108.2780  108.3260  123.5780 H       2  LIG2        0.0657
     31    H      111.7340  116.3430  127.8570 H       2  LIG2        0.2094
     32    H      110.9760  107.2290  126.7030 H       2  LIG2        0.0657
     33    H      112.1040  108.7770  127.4070 H       2  LIG2        0.2921
     34    H      111.4030  112.0880  124.3650 H       2  LIG2        0.0355
     35    H      108.6200  112.4520  125.5460 H       2  LIG2        0.0345
     36    H      112.1420  112.0790  126.7580 H       2  LIG2        0.0275
     37    H      110.6490  112.2890  127.2990 H       2  LIG2        0.0275
     38    H      112.3250  114.4200  125.9350 H       2  LIG2        0.0323
     39    H      110.3700  115.8740  126.0680 H       2  LIG2        0.0269
     40    H      109.4700  114.7140  126.9730 H       2  LIG2        0.0269
     41    H      108.6090  114.7440  124.6930 H       2  LIG2        0.0269
     42    H      110.1870  114.5730  124.0120 H       2  LIG2        0.0269
     43    H      110.9080  114.3090  128.6370 H       2  LIG2        0.0560
     44    H      112.5370  113.6610  128.4110 H       2  LIG2        0.0560
     45    H      107.6990  114.0420  123.1170 H       2  LIG2        0.0268
     46    H      107.2470  112.6360  122.1230 H       2  LIG2        0.0268
     47    H      106.8460  112.6670  123.8570 H       2  LIG2        0.0268
     48    H      110.1080  113.7820  122.4030 H       2  LIG2        0.0268
     49    H      110.9230  112.2150  122.6140 H       2  LIG2        0.0268
     50    H      109.6380  112.3920  121.3960 H       2  LIG2        0.0268
     51    H      108.3950  106.4150  122.9580 H       2  LIG2        0.0274
     52    H      107.1930  106.8520  124.1880 H       2  LIG2        0.0274
     53    H      108.2780  104.6560  126.2110 H       2  LIG2        0.0238
     54    H      109.4100  105.7130  127.0850 H       2  LIG2        0.0238
     55    H      107.7710  106.2900  126.7000 H       2  LIG2        0.0238
     56    H      110.0140  104.3510  124.4770 H       2  LIG2        0.0238
     57    H      110.7010  105.7500  123.6200 H       2  LIG2        0.0238
     58    H      111.1100  105.4650  125.3280 H       2  LIG2        0.0238
     59    H      106.7640  104.5770  124.7430 H       2  LIG2        0.0266
     60    H      108.2460  104.0150  123.9590 H       2  LIG2        0.0266
     61    H      106.4590  103.4320  122.4650 H       2  LIG2        0.0266
     62    H      107.2330  104.8730  121.7470 H       2  LIG2        0.0266
     63    H      105.5070  106.3200  122.7650 H       2  LIG2        0.0275
     64    H      104.7450  104.8970  123.5200 H       2  LIG2        0.0275
     65    H      104.3120  103.9280  121.2720 H       2  LIG2        0.0418
     66    H      105.0700  105.3780  120.5140 H       2  LIG2        0.0418
@<TRIPOS>BOND
     1    66    28    1
     2    65    28    1
     3    28    29    1
     4    28    27    1
     5    50    20    1
     6    29     2    3
     7    62    26    1
     8    46    19    1
     9    20    48    1
    10    20    49    1
    11    20    13    1
    12    61    26    1
    13    26    27    1
    14    26    25    1
    15    27    63    1
    16    27    64    1
    17    51    22    1
    18    19    45    1
    19    19    13    1
    20    19    47    1
    21     3    13    1
    22     3    10    1
    23    13    12    1
    24    30     1    1
    25    57    24    1
    26    25    22    1
    27    25    60    1
    28    25    59    1
    29    22    52    1
    30    22    21    1
    31    42    17    1
    32    10     1   ar
    33    10     9   ar
    34     1     4   ar
    35    34    11    1
    36    56    24    1
    37    24    21    1
    38    24    58    1
    39    41    17    1
    40    12    17    1
    41    12    11    1
    42    12    35    1
    43    17    16    1
    44    21     4    1
    45    21    23    1
    46     4     6   ar
    47    11     9    1
    48    11    14    1
    49     9     8   ar
    50    38    15    1
    51     8     6   ar
    52     8     7    1
    53    39    16    1
    54     6    32    1
    55    16    15    1
    56    16    40    1
    57    53    23    1
    58    23    55    1
    59    23    54    1
    60    14    15    1
    61    14    36    1
    62    14    37    1
    63    15    18    1
    64     7    33    1
    65    31     5    1
    66    18     5    1
    67    18    44    1
    68    18    43    1
@<TRIPOS>MOLECULE
6kpf_ligand_run_11.pdb
 66 68 0 0 0
SMALL
GASTEIGER

@<TRIPOS>ATOM
      1    C      111.6540  109.7330  126.1300 C.ar    2  LIG2       -0.0157
      2    N      108.2900  115.0820  125.4940 N.1     2  LIG2       -0.1966
      3    O      111.5000  107.3840  126.6030 O.3     2  LIG2       -0.4855
      4    C      111.3210  110.8730  125.4250 C.ar    2  LIG2       -0.0348
      5    O      105.3440  104.6110  123.0440 O.3     2  LIG2       -0.3947
      6    C      110.4310  110.9030  124.3690 C.ar    2  LIG2       -0.0160
      7    O      109.0480  109.7190  123.0580 O.3     2  LIG2       -0.5064
      8    C      109.9180  109.6270  124.1150 C.ar    2  LIG2        0.1240
      9    C      110.1780  108.3820  124.7810 C.ar    2  LIG2        0.0391
     10    C      111.1210  108.4730  125.8550 C.ar    2  LIG2        0.1285
     11    C      109.6310  106.9620  124.5190 C.3     2  LIG2       -0.0022
     12    C      109.5010  106.2090  125.8760 C.3     2  LIG2        0.0054
     13    C      110.9010  106.0650  126.4780 C.3     2  LIG2        0.1084
     14    C      108.2410  106.8160  123.8490 C.3     2  LIG2       -0.0407
     15    C      107.5220  105.4880  123.6400 C.3     2  LIG2       -0.0172
     16    C      107.4950  104.8000  125.0120 C.3     2  LIG2       -0.0477
     17    C      108.8490  104.8070  125.7560 C.3     2  LIG2       -0.0457
     18    C      106.1020  105.8020  123.1710 C.3     2  LIG2        0.0470
     19    C      110.8030  105.4460  127.8760 C.3     2  LIG2       -0.0249
     20    C      111.7710  105.1830  125.5740 C.3     2  LIG2       -0.0249
     21    C      112.0050  112.1920  125.8600 C.3     2  LIG2       -0.0096
     22    C      111.8660  112.3770  127.4030 C.3     2  LIG2       -0.0439
     23    C      111.4120  113.4180  125.1360 C.3     2  LIG2       -0.0558
     24    C      113.4910  112.1000  125.4740 C.3     2  LIG2       -0.0558
     25    C      110.3880  112.5140  127.7800 C.3     2  LIG2       -0.0522
     26    C      110.0690  113.9580  128.1920 C.3     2  LIG2       -0.0521
     27    C      108.6270  114.0210  128.7120 C.3     2  LIG2       -0.0402
     28    C      107.6570  113.6350  127.5740 C.3     2  LIG2        0.0348
     29    C      108.0220  114.4200  126.4060 C.1     2  LIG2        0.0625
     30    H      112.3620  109.7890  126.9440 H       2  LIG2        0.0657
     31    H      104.4120  104.8310  122.9750 H       2  LIG2        0.2094
     32    H      110.2210  111.8360  123.8660 H       2  LIG2        0.0657
     33    H      108.9410  110.6410  122.8120 H       2  LIG2        0.2921
     34    H      110.3570  106.4290  123.9060 H       2  LIG2        0.0355
     35    H      108.8960  106.8150  126.5500 H       2  LIG2        0.0345
     36    H      108.2580  107.3530  122.9010 H       2  LIG2        0.0275
     37    H      107.5510  107.5090  124.3310 H       2  LIG2        0.0275
     38    H      108.0460  104.8730  122.9080 H       2  LIG2        0.0323
     39    H      107.1530  103.7720  124.8940 H       2  LIG2        0.0269
     40    H      106.7370  105.2720  125.6380 H       2  LIG2        0.0269
     41    H      108.7150  104.3840  126.7510 H       2  LIG2        0.0269
     42    H      109.5400  104.1280  125.2550 H       2  LIG2        0.0269
     43    H      105.6200  106.4640  123.8900 H       2  LIG2        0.0560
     44    H      106.1420  106.3110  122.2080 H       2  LIG2        0.0560
     45    H      110.3560  104.4550  127.8050 H       2  LIG2        0.0268
     46    H      111.8010  105.3650  128.3090 H       2  LIG2        0.0268
     47    H      110.1840  106.0790  128.5120 H       2  LIG2        0.0268
     48    H      111.3180  104.1960  125.4840 H       2  LIG2        0.0268
     49    H      111.8480  105.6380  124.5860 H       2  LIG2        0.0268
     50    H      112.7660  105.0870  126.0070 H       2  LIG2        0.0268
     51    H      112.4040  113.2730  127.7120 H       2  LIG2        0.0274
     52    H      112.2910  111.5130  127.9120 H       2  LIG2        0.0274
     53    H      111.9210  114.3210  125.4720 H       2  LIG2        0.0238
     54    H      111.5460  113.3050  124.0610 H       2  LIG2        0.0238
     55    H      110.3480  113.4950  125.3640 H       2  LIG2        0.0238
     56    H      114.0010  113.0170  125.7680 H       2  LIG2        0.0238
     57    H      113.9460  111.2520  125.9840 H       2  LIG2        0.0238
     58    H      113.5780  111.9650  124.3960 H       2  LIG2        0.0238
     59    H      110.1600  111.8420  128.6070 H       2  LIG2        0.0266
     60    H      109.7690  112.2350  126.9270 H       2  LIG2        0.0266
     61    H      110.1730  114.6140  127.3280 H       2  LIG2        0.0266
     62    H      110.7530  114.2700  128.9810 H       2  LIG2        0.0266
     63    H      108.4070  115.0340  129.0500 H       2  LIG2        0.0275
     64    H      108.5090  113.3240  129.5410 H       2  LIG2        0.0275
     65    H      106.6360  113.8780  127.8690 H       2  LIG2        0.0418
     66    H      107.7670  112.5750  127.3470 H       2  LIG2        0.0418
@<TRIPOS>BOND
     1    44    18    1
     2    33     7    1
     3    36    14    1
     4    38    15    1
     5    31     5    1
     6     5    18    1
     7     7     8    1
     8    18    15    1
     9    18    43    1
    10    15    14    1
    11    15    16    1
    12    14    37    1
    13    14    11    1
    14    32     6    1
    15    34    11    1
    16    54    23    1
    17     8     6   ar
    18     8     9   ar
    19     6     4   ar
    20    58    24    1
    21    11     9    1
    22    11    12    1
    23    49    20    1
    24     9    10   ar
    25    39    16    1
    26    16    40    1
    27    16    17    1
    28    23    55    1
    29    23    53    1
    30    23    21    1
    31    42    17    1
    32     4    21    1
    33     4     1   ar
    34    24    56    1
    35    24    21    1
    36    24    57    1
    37    48    20    1
    38     2    29    3
    39    20    50    1
    40    20    13    1
    41    17    12    1
    42    17    41    1
    43    10     1   ar
    44    10     3    1
    45    21    22    1
    46    12    13    1
    47    12    35    1
    48     1    30    1
    49    29    28    1
    50    13     3    1
    51    13    19    1
    52    60    25    1
    53    61    26    1
    54    66    28    1
    55    22    51    1
    56    22    25    1
    57    22    52    1
    58    28    65    1
    59    28    27    1
    60    25    26    1
    61    25    59    1
    62    45    19    1
    63    19    46    1
    64    19    47    1
    65    26    27    1
    66    26    62    1
    67    27    63    1
    68    27    64    1
@<TRIPOS>MOLECULE
6kpf_ligand_run_17.pdb
 66 68 0 0 0
SMALL
GASTEIGER

@<TRIPOS>ATOM
      1    C      108.9000  106.2440  124.5040 C.ar    2  LIG2       -0.0157
      2    N      100.4360  105.9480  120.6100 N.1     2  LIG2       -0.1966
      3    O      110.5030  106.8610  126.1830 O.3     2  LIG2       -0.4855
      4    C      108.0170  106.5260  123.4820 C.ar    2  LIG2       -0.0348
      5    O      110.6710  113.7910  124.0790 O.3     2  LIG2       -0.3947
      6    C      107.7570  107.7970  123.0050 C.ar    2  LIG2       -0.0160
      7    O      108.2060  109.9860  123.1850 O.3     2  LIG2       -0.5064
      8    C      108.5090  108.7510  123.6980 C.ar    2  LIG2        0.1240
      9    C      109.4590  108.5780  124.7600 C.ar    2  LIG2        0.0391
     10    C      109.6410  107.2190  125.1740 C.ar    2  LIG2        0.1285
     11    C      110.2970  109.6110  125.5430 C.3     2  LIG2       -0.0022
     12    C      111.6700  108.9760  125.9150 C.3     2  LIG2        0.0054
     13    C      111.4100  107.7870  126.8430 C.3     2  LIG2        0.1084
     14    C      110.6540  110.9520  124.8530 C.3     2  LIG2       -0.0407
     15    C      111.5720  112.0120  125.4540 C.3     2  LIG2       -0.0172
     16    C      112.8670  111.2810  125.8370 C.3     2  LIG2       -0.0477
     17    C      112.6510  109.9590  126.6050 C.3     2  LIG2       -0.0457
     18    C      111.8450  113.0530  124.3690 C.3     2  LIG2        0.0470
     19    C      112.7250  107.0530  127.1250 C.3     2  LIG2       -0.0249
     20    C      110.7890  108.2750  128.1570 C.3     2  LIG2       -0.0249
     21    C      107.2750  105.3260  122.8440 C.3     2  LIG2       -0.0096
     22    C      105.7330  105.5280  122.9720 C.3     2  LIG2       -0.0439
     23    C      107.6770  103.9860  123.4940 C.3     2  LIG2       -0.0558
     24    C      107.6750  105.2610  121.3610 C.3     2  LIG2       -0.0558
     25    C      104.9990  104.5020  122.1050 C.3     2  LIG2       -0.0522
     26    C      103.4800  104.6620  122.2490 C.3     2  LIG2       -0.0521
     27    C      102.7820  103.6050  121.3830 C.3     2  LIG2       -0.0402
     28    C      101.2570  103.6820  121.6140 C.3     2  LIG2        0.0348
     29    C      100.7910  104.9310  121.0340 C.1     2  LIG2        0.0625
     30    H      109.0480  105.2240  124.8250 H       2  LIG2        0.0657
     31    H      110.3250  114.1730  124.8890 H       2  LIG2        0.2094
     32    H      107.0510  107.9370  122.1990 H       2  LIG2        0.0657
     33    H      107.8870  109.8910  122.2840 H       2  LIG2        0.2921
     34    H      109.7710  109.8400  126.4700 H       2  LIG2        0.0355
     35    H      112.1370  108.6060  125.0020 H       2  LIG2        0.0345
     36    H      109.7280  111.4350  124.5400 H       2  LIG2        0.0275
     37    H      110.9910  110.7400  123.8390 H       2  LIG2        0.0275
     38    H      111.1130  112.4730  126.3280 H       2  LIG2        0.0323
     39    H      113.4940  111.9460  126.4310 H       2  LIG2        0.0269
     40    H      113.4500  111.0850  124.9380 H       2  LIG2        0.0269
     41    H      113.6120  109.4670  126.7530 H       2  LIG2        0.0269
     42    H      112.2930  110.1800  127.6110 H       2  LIG2        0.0269
     43    H      112.6270  113.7330  124.7070 H       2  LIG2        0.0560
     44    H      112.1920  112.5530  123.4650 H       2  LIG2        0.0560
     45    H      113.4200  107.7300  127.6210 H       2  LIG2        0.0268
     46    H      112.5320  106.1950  127.7700 H       2  LIG2        0.0268
     47    H      113.1600  106.7100  126.1870 H       2  LIG2        0.0268
     48    H      111.4720  108.9670  128.6480 H       2  LIG2        0.0268
     49    H      109.8470  108.7820  127.9480 H       2  LIG2        0.0268
     50    H      110.6050  107.4220  128.8110 H       2  LIG2        0.0268
     51    H      105.4700  106.5340  122.6450 H       2  LIG2        0.0274
     52    H      105.4350  105.4030  124.0130 H       2  LIG2        0.0274
     53    H      107.1320  103.1720  123.0160 H       2  LIG2        0.0238
     54    H      108.7470  103.8280  123.3690 H       2  LIG2        0.0238
     55    H      107.4350  104.0100  124.5570 H       2  LIG2        0.0238
     56    H      107.1680  104.4230  120.8840 H       2  LIG2        0.0238
     57    H      107.3890  106.1880  120.8670 H       2  LIG2        0.0238
     58    H      108.7540  105.1250  121.2820 H       2  LIG2        0.0238
     59    H      105.2890  103.4960  122.4100 H       2  LIG2        0.0266
     60    H      105.2820  104.6410  121.0610 H       2  LIG2        0.0266
     61    H      103.1860  105.6580  121.9150 H       2  LIG2        0.0266
     62    H      103.1970  104.5210  123.2930 H       2  LIG2        0.0266
     63    H      103.1410  102.6140  121.6600 H       2  LIG2        0.0275
     64    H      103.0000  103.7950  120.3320 H       2  LIG2        0.0275
     65    H      101.0510  103.6800  122.6850 H       2  LIG2        0.0418
     66    H      100.7710  102.8460  121.1110 H       2  LIG2        0.0418
@<TRIPOS>BOND
     1    64    27    1
     2     2    29    3
     3    57    24    1
     4    56    24    1
     5    29    28    1
     6    60    25    1
     7    66    28    1
     8    58    24    1
     9    24    21    1
    10    27    28    1
    11    27    63    1
    12    27    26    1
    13    28    65    1
    14    61    26    1
    15    25    26    1
    16    25    59    1
    17    25    22    1
    18    32     6    1
    19    26    62    1
    20    33     7    1
    21    51    22    1
    22    21    22    1
    23    21     4    1
    24    21    23    1
    25    22    52    1
    26     6     4   ar
    27     6     8   ar
    28    53    23    1
    29     7     8    1
    30    54    23    1
    31    44    18    1
    32     4     1   ar
    33    23    55    1
    34     8     9   ar
    35    37    14    1
    36     5    18    1
    37     5    31    1
    38    18    43    1
    39    18    15    1
    40     1    30    1
    41     1    10   ar
    42    36    14    1
    43     9    10   ar
    44     9    11    1
    45    14    15    1
    46    14    11    1
    47    40    16    1
    48    35    12    1
    49    10     3    1
    50    15    16    1
    51    15    38    1
    52    11    12    1
    53    11    34    1
    54    16    39    1
    55    16    17    1
    56    12    17    1
    57    12    13    1
    58     3    13    1
    59    47    19    1
    60    17    41    1
    61    17    42    1
    62    13    19    1
    63    13    20    1
    64    19    45    1
    65    19    46    1
    66    49    20    1
    67    20    48    1
    68    20    50    1
