# Top-energy pose of compounds ranked according to the score (given in kcal/mol).
@<TRIPOS>MOLECULE
11996452_9_run_11.pdb
 42 44 0 0 0
SMALL
GASTEIGER

@<TRIPOS>ATOM
      1    O      -61.5960  -79.5190  -16.1790 O.3     2  LIG2       -0.3886
      2    C      -62.1440  -82.4680  -16.3000 C.3     2  LIG2       -0.0289
      3    C      -63.2970  -83.2730  -16.9160 C.3     2  LIG2       -0.0284
      4    C      -63.4530  -81.7810  -16.7000 C.3     2  LIG2       -0.0319
      5    C      -61.6530  -82.3810  -14.8130 C.3     2  LIG2       -0.0294
      6    C      -61.3640  -80.9460  -14.2580 C.3     2  LIG2       -0.0090
      7    C      -64.2770  -81.1240  -15.5710 C.3     2  LIG2       -0.0468
      8    C      -62.3360  -83.1930  -13.6730 C.3     2  LIG2       -0.0404
      9    C      -62.1190  -79.7050  -14.8710 C.3     2  LIG2        0.0664
     10    C      -61.4570  -81.1160  -12.7270 C.3     2  LIG2       -0.0471
     11    C      -63.6700  -79.8200  -15.0050 C.3     2  LIG2       -0.0237
     12    C      -63.0640  -83.7400  -18.3680 C.3     2  LIG2       -0.0593
     13    C      -64.2250  -84.2560  -16.1630 C.3     2  LIG2       -0.0593
     14    C      -62.4670  -82.2300  -12.4840 C.3     2  LIG2       -0.0498
     15    C      -61.6100  -84.5070  -13.3200 C.3     2  LIG2       -0.0621
     16    C      -61.7690  -78.3760  -14.1560 C.3     2  LIG2       -0.0358
     17    H      -61.2990  -82.2660  -16.9610 H       2  LIG2        0.0312
     18    H      -63.4630  -81.1660  -17.6000 H       2  LIG2        0.0309
     19    H      -60.6570  -82.8230  -14.8850 H       2  LIG2        0.0310
     20    H      -60.3060  -80.7480  -14.4540 H       2  LIG2        0.0331
     21    H      -65.2790  -80.9130  -15.9490 H       2  LIG2        0.0269
     22    H      -64.4380  -81.7990  -14.7390 H       2  LIG2        0.0269
     23    H      -63.3470  -83.4670  -13.9220 H       2  LIG2        0.0301
     24    H      -60.4830  -81.4090  -12.3280 H       2  LIG2        0.0269
     25    H      -61.7490  -80.2140  -12.1940 H       2  LIG2        0.0269
     26    H      -64.0380  -78.9810  -15.6000 H       2  LIG2        0.0293
     27    H      -64.1100  -79.6740  -14.0180 H       2  LIG2        0.0293
     28    H      -64.0080  -83.8510  -18.9030 H       2  LIG2        0.0235
     29    H      -62.5500  -84.6990  -18.3900 H       2  LIG2        0.0235
     30    H      -62.4570  -83.0330  -18.9360 H       2  LIG2        0.0235
     31    H      -64.9870  -84.6540  -16.8340 H       2  LIG2        0.0235
     32    H      -64.7880  -83.8230  -15.3430 H       2  LIG2        0.0235
     33    H      -63.6610  -85.1090  -15.7840 H       2  LIG2        0.0235
     34    H      -63.4760  -81.8150  -12.4420 H       2  LIG2        0.0268
     35    H      -62.2890  -82.7180  -11.5240 H       2  LIG2        0.0268
     36    H      -60.5960  -84.3200  -12.9660 H       2  LIG2        0.0233
     37    H      -61.5450  -85.1620  -14.1890 H       2  LIG2        0.0233
     38    H      -62.1390  -85.0510  -12.5380 H       2  LIG2        0.0233
     39    H      -62.2350  -78.3050  -13.1740 H       2  LIG2        0.0257
     40    H      -62.1140  -77.5080  -14.7200 H       2  LIG2        0.0257
     41    H      -60.6920  -78.2630  -14.0190 H       2  LIG2        0.0257
     42    H      -60.7470  -79.0790  -16.1080 H       2  LIG2        0.2102
@<TRIPOS>BOND
     1    30    12    1
     2    28    12    1
     3    29    12    1
     4    12     3    1
     5    18     4    1
     6    17     2    1
     7     3     4    1
     8     3     2    1
     9     3    13    1
    10    31    13    1
    11     4     2    1
    12     4     7    1
    13     2     5    1
    14     1    42    1
    15     1     9    1
    16    13    33    1
    17    13    32    1
    18    21     7    1
    19    26    11    1
    20     7    11    1
    21     7    22    1
    22    11     9    1
    23    11    27    1
    24    19     5    1
    25     9     6    1
    26     9    16    1
    27     5     6    1
    28     5     8    1
    29    40    16    1
    30    20     6    1
    31     6    10    1
    32    37    15    1
    33    16    41    1
    34    16    39    1
    35    23     8    1
    36     8    15    1
    37     8    14    1
    38    15    36    1
    39    15    38    1
    40    10    14    1
    41    10    24    1
    42    10    25    1
    43    14    34    1
    44    14    35    1
@<TRIPOS>MOLECULE
5281519_run_8.pdb
 39 39 0 0 0
SMALL
GASTEIGER

@<TRIPOS>ATOM
      1    C      -61.7230  -83.1960  -17.1170 C.3     2  LIG2       -0.0275
      2    C      -62.8440  -84.1840  -16.7240 C.2     2  LIG2       -0.0668
      3    C      -62.1300  -81.7080  -17.3450 C.3     2  LIG2       -0.0283
      4    C      -62.8220  -84.6190  -15.2420 C.3     2  LIG2       -0.0130
      5    C      -62.4450  -80.9340  -16.0700 C.2     2  LIG2       -0.0762
      6    C      -64.0480  -81.4790  -13.2280 C.3     2  LIG2       -0.0286
      7    C      -64.1930  -80.3390  -14.2830 C.3     2  LIG2       -0.0308
      8    C      -64.1050  -82.8810  -13.8380 C.2     2  LIG2       -0.0759
      9    C      -63.7550  -84.6420  -17.6300 C.2     2  LIG2       -0.0762
     10    C      -62.9640  -83.4550  -14.2810 C.2     2  LIG2       -0.0810
     11    C      -63.7230  -80.7450  -15.6790 C.2     2  LIG2       -0.0847
     12    C      -61.2310  -80.5230  -15.2440 C.3     2  LIG2       -0.0438
     13    C      -65.5070  -83.4090  -14.1110 C.3     2  LIG2       -0.0438
     14    C      -63.7880  -84.2140  -19.0960 C.3     2  LIG2       -0.0438
     15    C      -64.8530  -85.6580  -17.3230 C.3     2  LIG2       -0.0438
     16    H      -60.9130  -83.2580  -16.3890 H       2  LIG2        0.0313
     17    H      -61.2630  -83.5700  -18.0320 H       2  LIG2        0.0313
     18    H      -61.3270  -81.1840  -17.8650 H       2  LIG2        0.0313
     19    H      -62.9850  -81.6590  -18.0200 H       2  LIG2        0.0313
     20    H      -63.5980  -85.3370  -15.0010 H       2  LIG2        0.0352
     21    H      -61.8870  -85.1410  -15.0360 H       2  LIG2        0.0352
     22    H      -63.0830  -81.3610  -12.7310 H       2  LIG2        0.0313
     23    H      -64.7900  -81.3780  -12.4340 H       2  LIG2        0.0313
     24    H      -65.2450  -80.0630  -14.3730 H       2  LIG2        0.0310
     25    H      -63.6820  -79.4350  -13.9520 H       2  LIG2        0.0310
     26    H      -62.0290  -82.9590  -14.0660 H       2  LIG2        0.0575
     27    H      -64.5130  -81.1020  -16.3240 H       2  LIG2        0.0572
     28    H      -60.5810  -81.3760  -15.0490 H       2  LIG2        0.0274
     29    H      -61.5020  -80.0920  -14.2820 H       2  LIG2        0.0274
     30    H      -60.6540  -79.7720  -15.7860 H       2  LIG2        0.0274
     31    H      -65.9890  -83.6820  -13.1720 H       2  LIG2        0.0274
     32    H      -65.5130  -84.2880  -14.7510 H       2  LIG2        0.0274
     33    H      -66.1140  -82.6460  -14.5990 H       2  LIG2        0.0274
     34    H      -63.6780  -85.0820  -19.7460 H       2  LIG2        0.0274
     35    H      -63.0070  -83.5120  -19.3790 H       2  LIG2        0.0274
     36    H      -64.7420  -83.7370  -19.3210 H       2  LIG2        0.0274
     37    H      -65.0210  -86.3160  -18.1770 H       2  LIG2        0.0274
     38    H      -65.7890  -85.1400  -17.1190 H       2  LIG2        0.0274
     39    H      -64.6350  -86.3140  -16.4830 H       2  LIG2        0.0274
@<TRIPOS>BOND
     1    34    14    1
     2    35    14    1
     3    36    14    1
     4    14     9    1
     5    37    15    1
     6    17     1    1
     7    19     3    1
     8    18     3    1
     9     9    15    1
    10     9     2    2
    11     3     1    1
    12     3     5    1
    13    15    38    1
    14    15    39    1
    15     1     2    1
    16     1    16    1
    17     2     4    1
    18    27    11    1
    19     5    11    2
    20     5    12    1
    21    30    12    1
    22    11     7    1
    23    12    28    1
    24    12    29    1
    25     4    21    1
    26     4    20    1
    27     4    10    1
    28    32    13    1
    29    33    13    1
    30    24     7    1
    31     7    25    1
    32     7     6    1
    33    10    26    1
    34    10     8    2
    35    13     8    1
    36    13    31    1
    37     8     6    1
    38     6    22    1
    39     6    23    1
@<TRIPOS>MOLECULE
11996452_1_run_8.pdb
 42 44 0 0 0
SMALL
GASTEIGER

@<TRIPOS>ATOM
      1    O      -61.1710  -83.8160  -16.4670 O.3     2  LIG2       -0.3886
      2    C      -61.3660  -81.1060  -14.2640 C.3     2  LIG2       -0.0289
      3    C      -61.7710  -81.2670  -12.8070 C.3     2  LIG2       -0.0284
      4    C      -60.8580  -82.3020  -13.4290 C.3     2  LIG2       -0.0319
      5    C      -62.2750  -81.1230  -15.5450 C.3     2  LIG2       -0.0294
      6    C      -63.0600  -82.3510  -16.0730 C.3     2  LIG2       -0.0090
      7    C      -61.2380  -83.7950  -13.5750 C.3     2  LIG2       -0.0468
      8    C      -63.3260  -79.9850  -15.6370 C.3     2  LIG2       -0.0404
      9    C      -62.4740  -83.7800  -15.9050 C.3     2  LIG2        0.0664
     10    C      -64.5400  -82.1290  -15.6920 C.3     2  LIG2       -0.0471
     11    C      -62.4110  -84.2750  -14.4440 C.3     2  LIG2       -0.0237
     12    C      -61.1120  -80.3070  -11.7960 C.3     2  LIG2       -0.0593
     13    C      -63.2060  -81.6170  -12.3810 C.3     2  LIG2       -0.0593
     14    C      -64.6830  -80.6410  -15.3340 C.3     2  LIG2       -0.0498
     15    C      -63.0440  -78.7130  -14.8120 C.3     2  LIG2       -0.0621
     16    C      -63.2790  -84.8010  -16.7470 C.3     2  LIG2       -0.0358
     17    H      -60.6190  -80.3260  -14.4240 H       2  LIG2        0.0312
     18    H      -59.7890  -82.2360  -13.2230 H       2  LIG2        0.0309
     19    H      -61.5410  -80.9200  -16.3290 H       2  LIG2        0.0310
     20    H      -63.0650  -82.2070  -17.1590 H       2  LIG2        0.0331
     21    H      -60.3420  -84.3180  -13.9150 H       2  LIG2        0.0269
     22    H      -61.3940  -84.1840  -12.5680 H       2  LIG2        0.0269
     23    H      -63.3590  -79.6590  -16.6790 H       2  LIG2        0.0301
     24    H      -65.1830  -82.3670  -16.5410 H       2  LIG2        0.0269
     25    H      -64.8790  -82.7690  -14.8800 H       2  LIG2        0.0269
     26    H      -62.3410  -85.3650  -14.4510 H       2  LIG2        0.0293
     27    H      -63.3610  -84.1120  -13.9410 H       2  LIG2        0.0293
     28    H      -61.0890  -80.7450  -10.7980 H       2  LIG2        0.0235
     29    H      -61.6580  -79.3660  -11.7350 H       2  LIG2        0.0235
     30    H      -60.0830  -80.0670  -12.0650 H       2  LIG2        0.0235
     31    H      -63.2070  -82.1590  -11.4340 H       2  LIG2        0.0235
     32    H      -63.7320  -82.2300  -13.0970 H       2  LIG2        0.0235
     33    H      -63.8020  -80.7150  -12.2390 H       2  LIG2        0.0235
     34    H      -64.9640  -80.5180  -14.2890 H       2  LIG2        0.0268
     35    H      -65.4760  -80.1780  -15.9230 H       2  LIG2        0.0268
     36    H      -63.0690  -78.9060  -13.7410 H       2  LIG2        0.0233
     37    H      -63.7880  -77.9440  -15.0180 H       2  LIG2        0.0233
     38    H      -62.0670  -78.2940  -15.0540 H       2  LIG2        0.0233
     39    H      -64.3020  -84.9010  -16.3800 H       2  LIG2        0.0257
     40    H      -62.8320  -85.7970  -16.7220 H       2  LIG2        0.0257
     41    H      -63.3380  -84.5040  -17.7950 H       2  LIG2        0.0257
     42    H      -60.8130  -84.6980  -16.3470 H       2  LIG2        0.2102
@<TRIPOS>BOND
     1    41    16    1
     2    20     6    1
     3    16    40    1
     4    16    39    1
     5    16     9    1
     6    23     8    1
     7    24    10    1
     8     1    42    1
     9     1     9    1
    10    19     5    1
    11     6     9    1
    12     6    10    1
    13     6     5    1
    14    35    14    1
    15     9    11    1
    16    10    14    1
    17    10    25    1
    18     8     5    1
    19     8    14    1
    20     8    15    1
    21     5     2    1
    22    14    34    1
    23    38    15    1
    24    37    15    1
    25    15    36    1
    26    26    11    1
    27    11    27    1
    28    11     7    1
    29    17     2    1
    30     2     4    1
    31     2     3    1
    32    21     7    1
    33     7     4    1
    34     7    22    1
    35     4    18    1
    36     4     3    1
    37    32    13    1
    38     3    13    1
    39     3    12    1
    40    13    33    1
    41    13    31    1
    42    30    12    1
    43    12    29    1
    44    12    28    1
@<TRIPOS>MOLECULE
11996452_8_run_15.pdb
 42 44 0 0 0
SMALL
GASTEIGER

@<TRIPOS>ATOM
      1    O      -66.5390  -88.2800   -9.4290 O.3     2  LIG2       -0.3886
      2    C      -70.8350  -89.2860   -8.5940 C.3     2  LIG2       -0.0289
      3    C      -71.9730  -88.4980   -7.9550 C.3     2  LIG2       -0.0284
      4    C      -70.5590  -88.2580   -7.4880 C.3     2  LIG2       -0.0319
      5    C      -70.3100  -89.0140  -10.0330 C.3     2  LIG2       -0.0294
      6    C      -68.7920  -88.6770  -10.2350 C.3     2  LIG2       -0.0090
      7    C      -69.7170  -87.0230   -7.8520 C.3     2  LIG2       -0.0468
      8    C      -70.6280  -90.1810  -10.9970 C.3     2  LIG2       -0.0404
      9    C      -67.8590  -88.5460   -8.9770 C.3     2  LIG2        0.0664
     10    C      -68.3040  -89.6410  -11.3400 C.3     2  LIG2       -0.0471
     11    C      -68.2200  -87.3330   -8.0570 C.3     2  LIG2       -0.0237
     12    C      -72.7510  -87.4080   -8.7290 C.3     2  LIG2       -0.0593
     13    C      -72.8960  -89.2840   -7.0050 C.3     2  LIG2       -0.0593
     14    C      -69.5570  -90.0930  -12.0860 C.3     2  LIG2       -0.0498
     15    C      -72.0680  -90.1560  -11.5380 C.3     2  LIG2       -0.0621
     16    C      -67.6840  -89.8450   -8.1440 C.3     2  LIG2       -0.0358
     17    H      -70.7350  -90.3350   -8.3150 H       2  LIG2        0.0312
     18    H      -70.3130  -88.6220   -6.4890 H       2  LIG2        0.0309
     19    H      -70.8340  -88.1470  -10.4290 H       2  LIG2        0.0310
     20    H      -68.7630  -87.6880  -10.7000 H       2  LIG2        0.0331
     21    H      -70.0870  -86.5410   -8.7540 H       2  LIG2        0.0269
     22    H      -69.8230  -86.2770   -7.0630 H       2  LIG2        0.0269
     23    H      -70.4770  -91.1320  -10.4800 H       2  LIG2        0.0301
     24    H      -67.6000  -89.1580  -12.0180 H       2  LIG2        0.0269
     25    H      -67.7940  -90.5070  -10.9200 H       2  LIG2        0.0269
     26    H      -67.7840  -86.4170   -8.4620 H       2  LIG2        0.0293
     27    H      -67.7550  -87.4630   -7.0760 H       2  LIG2        0.0293
     28    H      -73.2450  -86.7250   -8.0370 H       2  LIG2        0.0235
     29    H      -73.5230  -87.8580   -9.3530 H       2  LIG2        0.0235
     30    H      -72.1380  -86.7930   -9.3820 H       2  LIG2        0.0235
     31    H      -73.3640  -88.6220   -6.2750 H       2  LIG2        0.0235
     32    H      -72.3550  -90.0490   -6.4470 H       2  LIG2        0.0235
     33    H      -73.6890  -89.7870   -7.5590 H       2  LIG2        0.0235
     34    H      -69.4010  -91.0480  -12.5880 H       2  LIG2        0.0268
     35    H      -69.8340  -89.3610  -12.8460 H       2  LIG2        0.0268
     36    H      -72.2780  -89.2360  -12.0840 H       2  LIG2        0.0233
     37    H      -72.7920  -90.2320  -10.7250 H       2  LIG2        0.0233
     38    H      -72.2470  -90.9920  -12.2150 H       2  LIG2        0.0233
     39    H      -68.5880  -90.1500   -7.6250 H       2  LIG2        0.0257
     40    H      -66.9260  -89.7220   -7.3680 H       2  LIG2        0.0257
     41    H      -67.3670  -90.6910   -8.7540 H       2  LIG2        0.0257
     42    H      -65.9660  -88.2100   -8.6620 H       2  LIG2        0.2102
@<TRIPOS>BOND
     1    35    14    1
     2    34    14    1
     3    38    15    1
     4    14    10    1
     5    14     8    1
     6    36    15    1
     7    24    10    1
     8    15     8    1
     9    15    37    1
    10    10    25    1
    11    10     6    1
    12     8    23    1
    13     8     5    1
    14    20     6    1
    15    19     5    1
    16     6     5    1
    17     6     9    1
    18     5     2    1
    19     1     9    1
    20     1    42    1
    21    30    12    1
    22    29    12    1
    23     9    16    1
    24     9    11    1
    25    41    16    1
    26    21     7    1
    27    12    28    1
    28    12     3    1
    29     2    17    1
    30     2     3    1
    31     2     4    1
    32    26    11    1
    33    16    39    1
    34    16    40    1
    35    11     7    1
    36    11    27    1
    37     3     4    1
    38     3    13    1
    39     7     4    1
    40     7    22    1
    41    33    13    1
    42     4    18    1
    43    13    32    1
    44    13    31    1
@<TRIPOS>MOLECULE
11996452_6_run_23.pdb
 42 44 0 0 0
SMALL
GASTEIGER

@<TRIPOS>ATOM
      1    O      -66.2890  -89.5480   -8.9290 O.3     2  LIG2       -0.3886
      2    C      -70.6950  -89.2080   -8.0220 C.3     2  LIG2       -0.0289
      3    C      -71.6800  -88.0310   -7.9570 C.3     2  LIG2       -0.0284
      4    C      -70.1970  -87.7840   -7.7590 C.3     2  LIG2       -0.0319
      5    C      -70.1450  -89.9970   -9.2580 C.3     2  LIG2       -0.0294
      6    C      -68.6040  -90.2620   -9.2870 C.3     2  LIG2       -0.0090
      7    C      -69.2520  -87.1590   -8.8060 C.3     2  LIG2       -0.0468
      8    C      -70.5900  -89.6590  -10.7130 C.3     2  LIG2       -0.0404
      9    C      -67.6280  -89.2660   -8.5490 C.3     2  LIG2        0.0664
     10    C      -68.3110  -90.5360  -10.7810 C.3     2  LIG2       -0.0471
     11    C      -67.8210  -87.7380   -8.8180 C.3     2  LIG2       -0.0237
     12    C      -72.4100  -87.3880   -9.1600 C.3     2  LIG2       -0.0593
     13    C      -72.5590  -87.9850   -6.6910 C.3     2  LIG2       -0.0593
     14    C      -69.3180  -89.7120  -11.5710 C.3     2  LIG2       -0.0498
     15    C      -71.7280  -90.5520  -11.2450 C.3     2  LIG2       -0.0621
     16    C      -67.5680  -89.5500   -7.0220 C.3     2  LIG2       -0.0358
     17    H      -70.7020  -89.8730   -7.1560 H       2  LIG2        0.0312
     18    H      -69.8960  -87.5070   -6.7470 H       2  LIG2        0.0309
     19    H      -70.5610  -90.9930   -9.0890 H       2  LIG2        0.0310
     20    H      -68.4450  -91.2210   -8.7900 H       2  LIG2        0.0331
     21    H      -69.6480  -87.2430   -9.8120 H       2  LIG2        0.0269
     22    H      -69.1960  -86.0840   -8.6260 H       2  LIG2        0.0269
     23    H      -70.9420  -88.6440  -10.8010 H       2  LIG2        0.0301
     24    H      -67.2950  -90.2900  -11.0900 H       2  LIG2        0.0269
     25    H      -68.4500  -91.5960  -10.9970 H       2  LIG2        0.0269
     26    H      -67.4000  -87.4890   -9.7940 H       2  LIG2        0.0293
     27    H      -67.2280  -87.1720   -8.0980 H       2  LIG2        0.0293
     28    H      -73.0110  -86.5380   -8.8330 H       2  LIG2        0.0235
     29    H      -73.0920  -88.0980   -9.6240 H       2  LIG2        0.0235
     30    H      -71.7630  -86.9770   -9.9290 H       2  LIG2        0.0235
     31    H      -72.8530  -86.9620   -6.4520 H       2  LIG2        0.0235
     32    H      -72.0450  -88.3810   -5.8140 H       2  LIG2        0.0235
     33    H      -73.4670  -88.5720   -6.8260 H       2  LIG2        0.0235
     34    H      -69.4910  -90.1450  -12.5580 H       2  LIG2        0.0268
     35    H      -68.9300  -88.7040  -11.7320 H       2  LIG2        0.0268
     36    H      -71.4290  -91.6010  -11.2830 H       2  LIG2        0.0233
     37    H      -72.0230  -90.2570  -12.2530 H       2  LIG2        0.0233
     38    H      -72.6120  -90.4810  -10.6120 H       2  LIG2        0.0233
     39    H      -68.5160  -89.3950   -6.5140 H       2  LIG2        0.0257
     40    H      -66.8400  -88.9140   -6.5150 H       2  LIG2        0.0257
     41    H      -67.2800  -90.5830   -6.8170 H       2  LIG2        0.0257
     42    H      -65.7020  -89.0020   -8.4000 H       2  LIG2        0.2102
@<TRIPOS>BOND
     1    34    14    1
     2    37    15    1
     3    35    14    1
     4    14    10    1
     5    14     8    1
     6    36    15    1
     7    15     8    1
     8    15    38    1
     9    24    10    1
    10    25    10    1
    11    23     8    1
    12    10     6    1
    13     8     5    1
    14    30    12    1
    15    21     7    1
    16    26    11    1
    17    29    12    1
    18     6     5    1
    19     6    20    1
    20     6     9    1
    21     5    19    1
    22     5     2    1
    23    12    28    1
    24    12     3    1
    25     1     9    1
    26     1    42    1
    27    11     7    1
    28    11     9    1
    29    11    27    1
    30     7    22    1
    31     7     4    1
    32     9    16    1
    33     2     3    1
    34     2     4    1
    35     2    17    1
    36     3     4    1
    37     3    13    1
    38     4    18    1
    39    16    41    1
    40    16    40    1
    41    16    39    1
    42    33    13    1
    43    13    31    1
    44    13    32    1
@<TRIPOS>MOLECULE
11996452_run_14.pdb
 42 44 0 0 0
SMALL
GASTEIGER

@<TRIPOS>ATOM
      1    O      -66.2890  -88.8560   -9.4290 O.3     2  LIG2       -0.3886
      2    C      -70.6700  -89.3730   -8.8170 C.3     2  LIG2       -0.0289
      3    C      -71.7700  -88.5050   -8.2190 C.3     2  LIG2       -0.0284
      4    C      -70.3550  -88.3470   -7.7170 C.3     2  LIG2       -0.0319
      5    C      -70.0730  -89.1390  -10.2360 C.3     2  LIG2       -0.0294
      6    C      -68.5110  -89.1940  -10.3180 C.3     2  LIG2       -0.0090
      7    C      -69.4140  -87.1860   -8.0910 C.3     2  LIG2       -0.0468
      8    C      -70.5620  -90.1570  -11.2950 C.3     2  LIG2       -0.0404
      9    C      -67.6460  -88.9530   -9.0250 C.3     2  LIG2        0.0664
     10    C      -68.1740  -90.4690  -11.1330 C.3     2  LIG2       -0.0471
     11    C      -67.9400  -87.6040   -8.2860 C.3     2  LIG2       -0.0237
     12    C      -72.4590  -87.3790   -9.0260 C.3     2  LIG2       -0.0593
     13    C      -72.7660  -89.2180   -7.2840 C.3     2  LIG2       -0.0593
     14    C      -69.4820  -91.2400  -11.3070 C.3     2  LIG2       -0.0498
     15    C      -71.9970  -90.6960  -11.1170 C.3     2  LIG2       -0.0621
     16    C      -67.6240  -90.1370   -8.0180 C.3     2  LIG2       -0.0358
     17    H      -70.6390  -90.4240   -8.5290 H       2  LIG2        0.0312
     18    H      -70.1650  -88.7010   -6.7020 H       2  LIG2        0.0309
     19    H      -70.3840  -88.1560  -10.5870 H       2  LIG2        0.0310
     20    H      -68.2470  -88.3630  -10.9790 H       2  LIG2        0.0331
     21    H      -69.7450  -86.6810   -8.9950 H       2  LIG2        0.0269
     22    H      -69.4670  -86.4250   -7.3110 H       2  LIG2        0.0269
     23    H      -70.5400  -89.6630  -12.2680 H       2  LIG2        0.0301
     24    H      -67.7830  -90.1870  -12.1130 H       2  LIG2        0.0269
     25    H      -67.4090  -91.0960  -10.6770 H       2  LIG2        0.0269
     26    H      -67.4660  -86.7800   -8.8260 H       2  LIG2        0.0293
     27    H      -67.4590  -87.6170   -7.3070 H       2  LIG2        0.0293
     28    H      -72.9140  -86.6500   -8.3540 H       2  LIG2        0.0235
     29    H      -73.2520  -87.7870   -9.6530 H       2  LIG2        0.0235
     30    H      -71.7960  -86.8210   -9.6820 H       2  LIG2        0.0235
     31    H      -73.2100  -88.5180   -6.5770 H       2  LIG2        0.0235
     32    H      -72.2880  -90.0090   -6.7030 H       2  LIG2        0.0235
     33    H      -73.5730  -89.6790   -7.8540 H       2  LIG2        0.0235
     34    H      -69.6260  -91.9380  -10.4800 H       2  LIG2        0.0268
     35    H      -69.4890  -91.8170  -12.2320 H       2  LIG2        0.0268
     36    H      -72.1070  -91.2830  -10.2050 H       2  LIG2        0.0233
     37    H      -72.2750  -91.3380  -11.9530 H       2  LIG2        0.0233
     38    H      -72.7190  -89.8790  -11.0790 H       2  LIG2        0.0233
     39    H      -68.5880  -90.3390   -7.5610 H       2  LIG2        0.0257
     40    H      -66.9360  -89.9450   -7.1920 H       2  LIG2        0.0257
     41    H      -67.2960  -91.0690   -8.4760 H       2  LIG2        0.0257
     42    H      -65.7560  -88.6590   -8.6550 H       2  LIG2        0.2102
@<TRIPOS>BOND
     1    23     8    1
     2    35    14    1
     3    24    10    1
     4    37    15    1
     5    14     8    1
     6    14    10    1
     7    14    34    1
     8     8    15    1
     9     8     5    1
    10    10    25    1
    11    10     6    1
    12    15    38    1
    13    15    36    1
    14    20     6    1
    15    19     5    1
    16     6     5    1
    17     6     9    1
    18     5     2    1
    19    30    12    1
    20    29    12    1
    21     1     9    1
    22     1    42    1
    23    12    28    1
    24    12     3    1
    25     9    11    1
    26     9    16    1
    27    21     7    1
    28    26    11    1
    29     2    17    1
    30     2     3    1
    31     2     4    1
    32    41    16    1
    33    11     7    1
    34    11    27    1
    35     3     4    1
    36     3    13    1
    37     7     4    1
    38     7    22    1
    39    16    39    1
    40    16    40    1
    41    33    13    1
    42     4    18    1
    43    13    32    1
    44    13    31    1
@<TRIPOS>MOLECULE
11996452_3_run_19.pdb
 42 44 0 0 0
SMALL
GASTEIGER

@<TRIPOS>ATOM
      1    O      -66.7150  -87.6590  -10.4290 O.3     2  LIG2       -0.3886
      2    C      -71.0420  -88.3830   -9.1530 C.3     2  LIG2       -0.0289
      3    C      -71.6060  -88.7310   -7.7850 C.3     2  LIG2       -0.0284
      4    C      -70.4950  -87.7070   -7.8890 C.3     2  LIG2       -0.0319
      5    C      -70.1230  -89.3300   -9.9660 C.3     2  LIG2       -0.0294
      6    C      -68.9150  -88.6040  -10.6100 C.3     2  LIG2       -0.0090
      7    C      -69.0400  -87.9690   -7.4460 C.3     2  LIG2       -0.0468
      8    C      -70.8780  -90.0380  -11.1220 C.3     2  LIG2       -0.0404
      9    C      -67.6790  -88.3730   -9.6720 C.3     2  LIG2        0.0664
     10    C      -68.6310  -89.4200  -11.8860 C.3     2  LIG2       -0.0471
     11    C      -67.9850  -87.4570   -8.4520 C.3     2  LIG2       -0.0237
     12    C      -73.0140  -88.1960   -7.4670 C.3     2  LIG2       -0.0593
     13    C      -71.3650  -90.1160   -7.1410 C.3     2  LIG2       -0.0593
     14    C      -69.9920  -89.9090  -12.3730 C.3     2  LIG2       -0.0498
     15    C      -71.2870  -91.4870  -10.7990 C.3     2  LIG2       -0.0621
     16    C      -66.9570  -89.6640   -9.2040 C.3     2  LIG2       -0.0358
     17    H      -71.6400  -87.7450   -9.8050 H       2  LIG2        0.0312
     18    H      -70.7850  -86.6760   -7.6810 H       2  LIG2        0.0309
     19    H      -69.7140  -90.1060   -9.3250 H       2  LIG2        0.0310
     20    H      -69.2600  -87.6210  -10.9440 H       2  LIG2        0.0331
     21    H      -68.8890  -87.4360   -6.5070 H       2  LIG2        0.0269
     22    H      -68.8540  -89.0130   -7.2090 H       2  LIG2        0.0269
     23    H      -71.7970  -89.4910  -11.3390 H       2  LIG2        0.0301
     24    H      -68.1300  -88.8240  -12.6490 H       2  LIG2        0.0269
     25    H      -67.9950  -90.2810  -11.6810 H       2  LIG2        0.0269
     26    H      -68.3080  -86.4740   -8.8020 H       2  LIG2        0.0293
     27    H      -67.0600  -87.2770   -7.8990 H       2  LIG2        0.0293
     28    H      -73.1570  -88.0870   -6.3920 H       2  LIG2        0.0235
     29    H      -73.7840  -88.8720   -7.8420 H       2  LIG2        0.0235
     30    H      -73.1950  -87.2200   -7.9190 H       2  LIG2        0.0235
     31    H      -71.4650  -90.0550   -6.0560 H       2  LIG2        0.0235
     32    H      -70.3860  -90.5440   -7.3400 H       2  LIG2        0.0235
     33    H      -72.1010  -90.8380   -7.4970 H       2  LIG2        0.0235
     34    H      -69.8980  -90.8470  -12.9230 H       2  LIG2        0.0268
     35    H      -70.4240  -89.1820  -13.0630 H       2  LIG2        0.0268
     36    H      -70.4150  -92.1100  -10.5940 H       2  LIG2        0.0233
     37    H      -71.8290  -91.9380  -11.6310 H       2  LIG2        0.0233
     38    H      -71.9370  -91.5250   -9.9240 H       2  LIG2        0.0233
     39    H      -67.6160  -90.3350   -8.6550 H       2  LIG2        0.0257
     40    H      -66.1200  -89.4350   -8.5430 H       2  LIG2        0.0257
     41    H      -66.5410  -90.2340  -10.0350 H       2  LIG2        0.0257
     42    H      -67.0500  -86.7730  -10.5870 H       2  LIG2        0.2102
@<TRIPOS>BOND
     1    35    14    1
     2    34    14    1
     3    24    10    1
     4    14    10    1
     5    14     8    1
     6    10    25    1
     7    10     6    1
     8    37    15    1
     9    23     8    1
    10     8    15    1
    11     8     5    1
    12    20     6    1
    13    15    36    1
    14    15    38    1
    15     6     5    1
    16     6     9    1
    17    42     1    1
    18     1     9    1
    19    41    16    1
    20     5    19    1
    21     5     2    1
    22    17     2    1
    23     9    16    1
    24     9    11    1
    25    16    39    1
    26    16    40    1
    27     2     4    1
    28     2     3    1
    29    26    11    1
    30    11    27    1
    31    11     7    1
    32    30    12    1
    33     4     3    1
    34     4    18    1
    35     4     7    1
    36    29    12    1
    37     3    12    1
    38     3    13    1
    39    33    13    1
    40    12    28    1
    41     7    22    1
    42     7    21    1
    43    32    13    1
    44    13    31    1
@<TRIPOS>MOLECULE
11996452_11_run_5.pdb
 42 44 0 0 0
SMALL
GASTEIGER

@<TRIPOS>ATOM
      1    O      -66.7220  -87.6590  -10.5020 O.3     2  LIG2       -0.3886
      2    C      -71.0260  -88.4890   -9.2350 C.3     2  LIG2       -0.0289
      3    C      -71.6140  -88.7750   -7.8650 C.3     2  LIG2       -0.0284
      4    C      -70.5040  -87.7540   -7.9920 C.3     2  LIG2       -0.0319
      5    C      -70.0590  -89.4510   -9.9740 C.3     2  LIG2       -0.0294
      6    C      -68.9050  -88.6590  -10.6450 C.3     2  LIG2       -0.0090
      7    C      -69.0510  -87.9900   -7.5160 C.3     2  LIG2       -0.0468
      8    C      -70.6880  -90.3510  -11.0780 C.3     2  LIG2       -0.0404
      9    C      -67.6590  -88.3960   -9.7330 C.3     2  LIG2        0.0664
     10    C      -68.6420  -89.3960  -11.9710 C.3     2  LIG2       -0.0471
     11    C      -67.9770  -87.4870   -8.5070 C.3     2  LIG2       -0.0237
     12    C      -73.0310  -88.2330   -7.6040 C.3     2  LIG2       -0.0593
     13    C      -71.3860  -90.1340   -7.1610 C.3     2  LIG2       -0.0593
     14    C      -70.0060  -89.9400  -12.3880 C.3     2  LIG2       -0.0498
     15    C      -72.2290  -90.3410  -11.1750 C.3     2  LIG2       -0.0621
     16    C      -66.9000  -89.6690   -9.2780 C.3     2  LIG2       -0.0358
     17    H      -71.6080  -87.8830   -9.9300 H       2  LIG2        0.0312
     18    H      -70.7990  -86.7150   -7.8380 H       2  LIG2        0.0309
     19    H      -69.6190  -90.1400   -9.2590 H       2  LIG2        0.0310
     20    H      -69.2940  -87.6790  -10.9340 H       2  LIG2        0.0331
     21    H      -68.9260  -87.4430   -6.5820 H       2  LIG2        0.0269
     22    H      -68.8570  -89.0290   -7.2580 H       2  LIG2        0.0269
     23    H      -70.3980  -91.3840  -10.8760 H       2  LIG2        0.0301
     24    H      -68.2310  -88.7320  -12.7330 H       2  LIG2        0.0269
     25    H      -67.9400  -90.2190  -11.8430 H       2  LIG2        0.0269
     26    H      -68.2910  -86.5010   -8.8560 H       2  LIG2        0.0293
     27    H      -67.0570  -87.3140   -7.9440 H       2  LIG2        0.0293
     28    H      -73.2000  -88.0710   -6.5390 H       2  LIG2        0.0235
     29    H      -73.7890  -88.9310   -7.9610 H       2  LIG2        0.0235
     30    H      -73.2070  -87.2810   -8.1080 H       2  LIG2        0.0235
     31    H      -71.5260  -90.0370   -6.0850 H       2  LIG2        0.0235
     32    H      -70.3980  -90.5610   -7.3100 H       2  LIG2        0.0235
     33    H      -72.1020  -90.8740   -7.5200 H       2  LIG2        0.0235
     34    H      -69.9040  -90.7790  -13.0770 H       2  LIG2        0.0268
     35    H      -70.5800  -89.1660  -12.9010 H       2  LIG2        0.0268
     36    H      -72.6150  -89.3560  -11.4390 H       2  LIG2        0.0233
     37    H      -72.6850  -90.6390  -10.2300 H       2  LIG2        0.0233
     38    H      -72.5740  -91.0400  -11.9380 H       2  LIG2        0.0233
     39    H      -67.5140  -90.3270   -8.6640 H       2  LIG2        0.0257
     40    H      -66.0220  -89.4160   -8.6790 H       2  LIG2        0.0257
     41    H      -66.5370  -90.2580  -10.1190 H       2  LIG2        0.0257
     42    H      -67.0790  -86.7810  -10.6550 H       2  LIG2        0.2102
@<TRIPOS>BOND
     1    34    14    1
     2    35    14    1
     3    24    10    1
     4    14    10    1
     5    14     8    1
     6    10    25    1
     7    10     6    1
     8    38    15    1
     9    36    15    1
    10    15     8    1
    11    15    37    1
    12     8    23    1
    13     8     5    1
    14    20     6    1
    15    42     1    1
    16     6     5    1
    17     6     9    1
    18     1     9    1
    19    41    16    1
    20     5    19    1
    21     5     2    1
    22    17     2    1
    23     9    16    1
    24     9    11    1
    25    16    40    1
    26    16    39    1
    27     2     4    1
    28     2     3    1
    29    26    11    1
    30    11    27    1
    31    11     7    1
    32    30    12    1
    33     4     3    1
    34     4    18    1
    35     4     7    1
    36    29    12    1
    37     3    12    1
    38     3    13    1
    39    12    28    1
    40    33    13    1
    41     7    22    1
    42     7    21    1
    43    32    13    1
    44    13    31    1
@<TRIPOS>MOLECULE
11996452_2_run_15.pdb
 42 44 0 0 0
SMALL
GASTEIGER

@<TRIPOS>ATOM
      1    O      -70.8740  -89.4090  -12.5690 O.3     2  LIG2       -0.3886
      2    C      -69.1800  -89.2990   -8.3050 C.3     2  LIG2       -0.0289
      3    C      -68.6700  -87.8750   -8.1690 C.3     2  LIG2       -0.0284
      4    C      -68.0690  -88.7690   -9.2370 C.3     2  LIG2       -0.0319
      5    C      -70.5980  -89.7340   -8.7980 C.3     2  LIG2       -0.0294
      6    C      -71.1150  -89.3800  -10.2150 C.3     2  LIG2       -0.0090
      7    C      -68.3160  -88.5900  -10.7510 C.3     2  LIG2       -0.0468
      8    C      -71.7280  -89.3080   -7.8340 C.3     2  LIG2       -0.0404
      9    C      -70.3900  -90.0810  -11.4170 C.3     2  LIG2        0.0664
     10    C      -72.6320  -89.6330  -10.1050 C.3     2  LIG2       -0.0471
     11    C      -68.8480  -89.8720  -11.4220 C.3     2  LIG2       -0.0237
     12    C      -69.5120  -86.6320   -8.5330 C.3     2  LIG2       -0.0593
     13    C      -67.7900  -87.5950   -6.9350 C.3     2  LIG2       -0.0593
     14    C      -73.0210  -89.2660   -8.6700 C.3     2  LIG2       -0.0498
     15    C      -71.8340  -90.1840   -6.5720 C.3     2  LIG2       -0.0621
     16    C      -70.7060  -91.5850  -11.5980 C.3     2  LIG2       -0.0358
     17    H      -68.8580  -89.9830   -7.5190 H       2  LIG2        0.0312
     18    H      -67.0440  -89.0940   -9.0520 H       2  LIG2        0.0309
     19    H      -70.5750  -90.8250   -8.7840 H       2  LIG2        0.0310
     20    H      -71.0280  -88.3080  -10.3600 H       2  LIG2        0.0331
     21    H      -68.9390  -87.7300  -10.9900 H       2  LIG2        0.0269
     22    H      -67.3520  -88.3610  -11.2050 H       2  LIG2        0.0269
     23    H      -71.5360  -88.2870   -7.5000 H       2  LIG2        0.0301
     24    H      -73.1960  -89.0440  -10.8310 H       2  LIG2        0.0269
     25    H      -72.8810  -90.6790  -10.2790 H       2  LIG2        0.0269
     26    H      -68.4690  -89.9220  -12.4450 H       2  LIG2        0.0293
     27    H      -68.3700  -90.7190  -10.9250 H       2  LIG2        0.0293
     28    H      -68.8620  -85.7800   -8.7340 H       2  LIG2        0.0235
     29    H      -70.1640  -86.3510   -7.7050 H       2  LIG2        0.0235
     30    H      -70.1430  -86.7410   -9.4050 H       2  LIG2        0.0235
     31    H      -67.1190  -86.7550   -7.1130 H       2  LIG2        0.0235
     32    H      -67.1700  -88.4510   -6.6650 H       2  LIG2        0.0235
     33    H      -68.4030  -87.3560   -6.0640 H       2  LIG2        0.0235
     34    H      -73.7890  -89.9420   -8.2910 H       2  LIG2        0.0268
     35    H      -73.4490  -88.2620   -8.6450 H       2  LIG2        0.0268
     36    H      -72.0450  -91.2230   -6.8250 H       2  LIG2        0.0233
     37    H      -72.6330  -89.8330   -5.9170 H       2  LIG2        0.0233
     38    H      -70.9080  -90.1620   -5.9960 H       2  LIG2        0.0233
     39    H      -70.4490  -92.1590  -10.7070 H       2  LIG2        0.0257
     40    H      -70.1410  -92.0110  -12.4290 H       2  LIG2        0.0257
     41    H      -71.7570  -91.7680  -11.8180 H       2  LIG2        0.0257
     42    H      -70.7870  -88.4630  -12.4290 H       2  LIG2        0.2102
@<TRIPOS>BOND
     1     1    42    1
     2     1     9    1
     3    26    11    1
     4    40    16    1
     5    41    16    1
     6    16     9    1
     7    16    39    1
     8    11     9    1
     9    11    27    1
    10    11     7    1
    11     9     6    1
    12    22     7    1
    13    21     7    1
    14    24    10    1
    15     7     4    1
    16    20     6    1
    17    25    10    1
    18     6    10    1
    19     6     5    1
    20    10    14    1
    21    30    12    1
    22     4    18    1
    23     4     2    1
    24     4     3    1
    25     5    19    1
    26     5     2    1
    27     5     8    1
    28    28    12    1
    29    14    35    1
    30    14    34    1
    31    14     8    1
    32    12     3    1
    33    12    29    1
    34     2     3    1
    35     2    17    1
    36     3    13    1
    37     8    23    1
    38     8    15    1
    39    31    13    1
    40    13    32    1
    41    13    33    1
    42    36    15    1
    43    15    38    1
    44    15    37    1
@<TRIPOS>MOLECULE
11996452_4_run_3.pdb
 42 44 0 0 0
SMALL
GASTEIGER

@<TRIPOS>ATOM
      1    O      -71.1750  -89.4090  -12.7510 O.3     2  LIG2       -0.3886
      2    C      -69.5360  -89.6260   -9.0300 C.3     2  LIG2       -0.0289
      3    C      -68.0230  -89.6780   -9.1290 C.3     2  LIG2       -0.0284
      4    C      -68.8420  -90.8070   -9.7190 C.3     2  LIG2       -0.0319
      5    C      -70.4210  -88.6980   -9.9020 C.3     2  LIG2       -0.0294
      6    C      -71.7060  -89.4380  -10.3680 C.3     2  LIG2       -0.0090
      7    C      -69.0510  -91.0280  -11.2350 C.3     2  LIG2       -0.0468
      8    C      -70.8750  -87.3600   -9.2470 C.3     2  LIG2       -0.0404
      9    C      -71.5630  -90.2690  -11.6900 C.3     2  LIG2        0.0664
     10    C      -72.7890  -88.3430  -10.3830 C.3     2  LIG2       -0.0471
     11    C      -70.5010  -91.4090  -11.6130 C.3     2  LIG2       -0.0237
     12    C      -67.2420  -88.6930  -10.0290 C.3     2  LIG2       -0.0593
     13    C      -67.2630  -89.9750   -7.8230 C.3     2  LIG2       -0.0593
     14    C      -72.4100  -87.3970   -9.2490 C.3     2  LIG2       -0.0498
     15    C      -70.2890  -87.0430   -7.8560 C.3     2  LIG2       -0.0621
     16    C      -72.9130  -90.8900  -12.1200 C.3     2  LIG2       -0.0358
     17    H      -69.9990  -89.8440   -8.0660 H       2  LIG2        0.0312
     18    H      -68.7800  -91.7600   -9.1910 H       2  LIG2        0.0309
     19    H      -69.8710  -88.4050  -10.7930 H       2  LIG2        0.0310
     20    H      -72.0030  -90.1390   -9.5850 H       2  LIG2        0.0331
     21    H      -68.7280  -90.1790  -11.8340 H       2  LIG2        0.0269
     22    H      -68.4000  -91.8500  -11.5360 H       2  LIG2        0.0269
     23    H      -70.5730  -86.5430   -9.9060 H       2  LIG2        0.0301
     24    H      -72.7960  -87.8090  -11.3340 H       2  LIG2        0.0269
     25    H      -73.7890  -88.7550  -10.2310 H       2  LIG2        0.0269
     26    H      -70.4750  -91.9330  -12.5700 H       2  LIG2        0.0293
     27    H      -70.8450  -92.1590  -10.8980 H       2  LIG2        0.0293
     28    H      -66.2640  -89.1010  -10.2860 H       2  LIG2        0.0235
     29    H      -67.0780  -87.7480   -9.5110 H       2  LIG2        0.0235
     30    H      -67.7330  -88.4510  -10.9680 H       2  LIG2        0.0235
     31    H      -66.2930  -90.4280   -8.0270 H       2  LIG2        0.0235
     32    H      -67.8120  -90.6610   -7.1760 H       2  LIG2        0.0235
     33    H      -67.0940  -89.0610   -7.2540 H       2  LIG2        0.0235
     34    H      -72.7910  -87.7770   -8.2980 H       2  LIG2        0.0268
     35    H      -72.8420  -86.4060   -9.3980 H       2  LIG2        0.0268
     36    H      -70.5900  -87.7780   -7.1090 H       2  LIG2        0.0233
     37    H      -70.6250  -86.0670   -7.5050 H       2  LIG2        0.0233
     38    H      -69.1980  -87.0200   -7.8840 H       2  LIG2        0.0233
     39    H      -73.3010  -91.5590  -11.3510 H       2  LIG2        0.0257
     40    H      -72.8180  -91.4710  -13.0390 H       2  LIG2        0.0257
     41    H      -73.6730  -90.1310  -12.3050 H       2  LIG2        0.0257
     42    H      -71.1880  -88.5050  -12.4290 H       2  LIG2        0.2102
@<TRIPOS>BOND
     1    40    16    1
     2     1    42    1
     3     1     9    1
     4    26    11    1
     5    41    16    1
     6    16     9    1
     7    16    39    1
     8    21     7    1
     9     9    11    1
    10     9     6    1
    11    11     7    1
    12    11    27    1
    13    22     7    1
    14    24    10    1
    15     7     4    1
    16    30    12    1
    17    19     5    1
    18    10     6    1
    19    10    25    1
    20    10    14    1
    21     6     5    1
    22     6    20    1
    23    28    12    1
    24    12    29    1
    25    12     3    1
    26    23     8    1
    27     5     8    1
    28     5     2    1
    29     4    18    1
    30     4     3    1
    31     4     2    1
    32    35    14    1
    33    14     8    1
    34    14    34    1
    35     8    15    1
    36     3     2    1
    37     3    13    1
    38     2    17    1
    39    31    13    1
    40    38    15    1
    41    15    37    1
    42    15    36    1
    43    13    33    1
    44    13    32    1
@<TRIPOS>MOLECULE
11996452_7_run_4.pdb
 42 44 0 0 0
SMALL
GASTEIGER

@<TRIPOS>ATOM
      1    O      -70.7800  -86.1590   -7.1410 O.3     2  LIG2       -0.3886
      2    C      -69.0120  -88.2870   -8.1800 C.3     2  LIG2       -0.0289
      3    C      -68.6870  -88.9530   -9.5110 C.3     2  LIG2       -0.0284
      4    C      -69.8760  -88.0270   -9.4210 C.3     2  LIG2       -0.0319
      5    C      -69.6400  -89.0470   -6.9740 C.3     2  LIG2       -0.0294
      6    C      -70.9230  -88.4380   -6.3050 C.3     2  LIG2       -0.0090
      7    C      -71.3440  -88.4840   -9.3580 C.3     2  LIG2       -0.0468
      8    C      -68.6090  -89.2650   -5.8380 C.3     2  LIG2       -0.0404
      9    C      -71.6750  -87.2520   -7.0120 C.3     2  LIG2        0.0664
     10    C      -70.5160  -88.1820   -4.8410 C.3     2  LIG2       -0.0471
     11    C      -72.2180  -87.6060   -8.4360 C.3     2  LIG2       -0.0237
     12    C      -67.4450  -88.4220  -10.2510 C.3     2  LIG2       -0.0593
     13    C      -68.8800  -90.4700   -9.7390 C.3     2  LIG2       -0.0593
     14    C      -69.4160  -89.1960   -4.5410 C.3     2  LIG2       -0.0498
     15    C      -67.7890  -90.5580   -5.9930 C.3     2  LIG2       -0.0621
     16    C      -72.8580  -86.7280   -6.1610 C.3     2  LIG2       -0.0358
     17    H      -68.3900  -87.4510   -7.8570 H       2  LIG2        0.0312
     18    H      -69.7810  -87.0680   -9.9290 H       2  LIG2        0.0309
     19    H      -69.9530  -90.0340   -7.3080 H       2  LIG2        0.0310
     20    H      -71.6590  -89.2430   -6.2580 H       2  LIG2        0.0331
     21    H      -71.7620  -88.4710  -10.3640 H       2  LIG2        0.0269
     22    H      -71.4300  -89.5170   -9.0260 H       2  LIG2        0.0269
     23    H      -67.9090  -88.4260   -5.8140 H       2  LIG2        0.0301
     24    H      -70.1370  -87.1670   -4.7130 H       2  LIG2        0.0269
     25    H      -71.3550  -88.3030   -4.1540 H       2  LIG2        0.0269
     26    H      -72.4800  -86.6880   -8.9660 H       2  LIG2        0.0293
     27    H      -73.1620  -88.1410   -8.3230 H       2  LIG2        0.0293
     28    H      -67.5260  -88.5910  -11.3250 H       2  LIG2        0.0235
     29    H      -66.5390  -88.9180   -9.9010 H       2  LIG2        0.0235
     30    H      -67.3040  -87.3500  -10.1020 H       2  LIG2        0.0235
     31    H      -68.9600  -90.6880  -10.8040 H       2  LIG2        0.0235
     32    H      -69.7670  -90.8890   -9.2720 H       2  LIG2        0.0235
     33    H      -68.0260  -91.0280   -9.3530 H       2  LIG2        0.0235
     34    H      -69.8470  -90.1680   -4.2960 H       2  LIG2        0.0268
     35    H      -68.8050  -88.8820   -3.6930 H       2  LIG2        0.0268
     36    H      -68.4300  -91.4420   -6.0040 H       2  LIG2        0.0233
     37    H      -67.0810  -90.6750   -5.1720 H       2  LIG2        0.0233
     38    H      -67.2180  -90.5520   -6.9220 H       2  LIG2        0.0233
     39    H      -73.5830  -87.5180   -5.9620 H       2  LIG2        0.0257
     40    H      -73.3890  -85.9180   -6.6640 H       2  LIG2        0.0257
     41    H      -72.5300  -86.3380   -5.1970 H       2  LIG2        0.0257
     42    H      -71.2530  -85.4250   -7.5380 H       2  LIG2        0.2102
@<TRIPOS>BOND
     1    28    12    1
     2    31    13    1
     3    21     7    1
     4    12    30    1
     5    12    29    1
     6    12     3    1
     7    18     4    1
     8    13     3    1
     9    13    33    1
    10    13    32    1
    11     3     4    1
    12     3     2    1
    13     4     7    1
    14     4     2    1
    15     7    22    1
    16     7    11    1
    17    26    11    1
    18    11    27    1
    19    11     9    1
    20     2    17    1
    21     2     5    1
    22    42     1    1
    23    19     5    1
    24     1     9    1
    25     9     6    1
    26     9    16    1
    27     5     6    1
    28     5     8    1
    29    38    15    1
    30    40    16    1
    31     6    20    1
    32     6    10    1
    33    16    39    1
    34    16    41    1
    35    36    15    1
    36    15     8    1
    37    15    37    1
    38     8    23    1
    39     8    14    1
    40    10    24    1
    41    10    14    1
    42    10    25    1
    43    14    34    1
    44    14    35    1
@<TRIPOS>MOLECULE
11996452_10_run_22.pdb
 42 44 0 0 0
SMALL
GASTEIGER

@<TRIPOS>ATOM
      1    O      -71.7940  -89.3480  -13.1450 O.3     2  LIG2       -0.3886
      2    C      -69.3010  -90.6390   -9.5310 C.3     2  LIG2       -0.0289
      3    C      -68.1590  -89.6410   -9.6390 C.3     2  LIG2       -0.0284
      4    C      -68.3710  -90.6390  -10.7650 C.3     2  LIG2       -0.0319
      5    C      -70.8420  -90.3800   -9.6220 C.3     2  LIG2       -0.0294
      6    C      -71.4550  -89.5850  -10.8060 C.3     2  LIG2       -0.0090
      7    C      -68.8930  -90.2440  -12.1670 C.3     2  LIG2       -0.0468
      8    C      -71.5320  -89.8600   -8.3230 C.3     2  LIG2       -0.0404
      9    C      -71.5260  -90.3490  -12.1740 C.3     2  LIG2        0.0664
     10    C      -72.7910  -89.0610  -10.2530 C.3     2  LIG2       -0.0471
     11    C      -70.1740  -90.9940  -12.5870 C.3     2  LIG2       -0.0237
     12    C      -68.3300  -88.1200   -9.8700 C.3     2  LIG2       -0.0593
     13    C      -66.9600  -89.9100   -8.7070 C.3     2  LIG2       -0.0593
     14    C      -72.5100  -88.7670   -8.7820 C.3     2  LIG2       -0.0498
     15    C      -70.6030  -89.3680   -7.1950 C.3     2  LIG2       -0.0621
     16    C      -72.6550  -91.4010  -12.2860 C.3     2  LIG2       -0.0358
     17    H      -69.1350  -91.4530   -8.8230 H       2  LIG2        0.0312
     18    H      -67.6230  -91.4300  -10.8420 H       2  LIG2        0.0309
     19    H      -71.2440  -91.3870   -9.7460 H       2  LIG2        0.0310
     20    H      -70.8650  -88.6900  -10.9610 H       2  LIG2        0.0331
     21    H      -69.0140  -89.1700  -12.2960 H       2  LIG2        0.0269
     22    H      -68.1140  -90.5140  -12.8810 H       2  LIG2        0.0269
     23    H      -72.1250  -90.6740   -7.9010 H       2  LIG2        0.0301
     24    H      -73.1340  -88.1690  -10.7800 H       2  LIG2        0.0269
     25    H      -73.5820  -89.8070  -10.3230 H       2  LIG2        0.0269
     26    H      -70.1560  -91.1520  -13.6670 H       2  LIG2        0.0293
     27    H      -70.1140  -92.0000  -12.1680 H       2  LIG2        0.0293
     28    H      -67.4040  -87.6970  -10.2580 H       2  LIG2        0.0235
     29    H      -68.5450  -87.6020   -8.9360 H       2  LIG2        0.0235
     30    H      -69.0950  -87.8290  -10.5740 H       2  LIG2        0.0235
     31    H      -66.0400  -89.4910   -9.1170 H       2  LIG2        0.0235
     32    H      -66.7850  -90.9760   -8.5540 H       2  LIG2        0.0235
     33    H      -67.1220  -89.4660   -7.7250 H       2  LIG2        0.0235
     34    H      -73.4290  -88.7700   -8.1950 H       2  LIG2        0.0268
     35    H      -72.0650  -87.7750   -8.6800 H       2  LIG2        0.0268
     36    H      -70.0000  -88.5160   -7.5040 H       2  LIG2        0.0233
     37    H      -69.9270  -90.1550   -6.8590 H       2  LIG2        0.0233
     38    H      -71.1820  -89.0540   -6.3260 H       2  LIG2        0.0233
     39    H      -72.5820  -92.1540  -11.5000 H       2  LIG2        0.0257
     40    H      -72.6150  -91.9270  -13.2410 H       2  LIG2        0.0257
     41    H      -73.6470  -90.9550  -12.2220 H       2  LIG2        0.0257
     42    H      -71.3570  -88.5370  -12.8730 H       2  LIG2        0.2102
@<TRIPOS>BOND
     1    26    11    1
     2    40    16    1
     3     1    42    1
     4     1     9    1
     5    22     7    1
     6    11     9    1
     7    11    27    1
     8    11     7    1
     9    21     7    1
    10    16    41    1
    11    16     9    1
    12    16    39    1
    13     9     6    1
    14     7     4    1
    15    20     6    1
    16    18     4    1
    17     6    10    1
    18     6     5    1
    19    24    10    1
    20     4     3    1
    21     4     2    1
    22    30    12    1
    23    25    10    1
    24    28    12    1
    25    10    14    1
    26    12     3    1
    27    12    29    1
    28    19     5    1
    29     3     2    1
    30     3    13    1
    31     5     2    1
    32     5     8    1
    33     2    17    1
    34    31    13    1
    35    14    35    1
    36    14     8    1
    37    14    34    1
    38    13    32    1
    39    13    33    1
    40     8    23    1
    41     8    15    1
    42    36    15    1
    43    15    37    1
    44    15    38    1
@<TRIPOS>MOLECULE
11996452_5_run_18.pdb
 42 44 0 0 0
SMALL
GASTEIGER

@<TRIPOS>ATOM
      1    O      -70.8560  -89.4090  -12.8700 O.3     2  LIG2       -0.3886
      2    C      -69.5770  -88.3750   -8.9670 C.3     2  LIG2       -0.0289
      3    C      -68.5380  -89.0630   -8.0990 C.3     2  LIG2       -0.0284
      4    C      -68.1250  -88.5460   -9.4690 C.3     2  LIG2       -0.0319
      5    C      -70.8180  -89.0010   -9.6900 C.3     2  LIG2       -0.0294
      6    C      -70.6810  -90.2770  -10.5620 C.3     2  LIG2       -0.0090
      7    C      -67.7970  -89.4660  -10.6700 C.3     2  LIG2       -0.0468
      8    C      -72.1010  -89.1780   -8.8230 C.3     2  LIG2       -0.0404
      9    C      -69.9970  -90.0710  -11.9540 C.3     2  LIG2        0.0664
     10    C      -72.1080  -90.8540  -10.6030 C.3     2  LIG2       -0.0471
     11    C      -68.6940  -89.2260  -11.9000 C.3     2  LIG2       -0.0237
     12    C      -68.0470  -88.2460   -6.8880 C.3     2  LIG2       -0.0593
     13    C      -68.5130  -90.5770   -7.7730 C.3     2  LIG2       -0.0593
     14    C      -72.6990  -90.5340   -9.2330 C.3     2  LIG2       -0.0498
     15    C      -71.9200  -89.0700   -7.2950 C.3     2  LIG2       -0.0621
     16    C      -69.6920  -91.4400  -12.6080 C.3     2  LIG2       -0.0358
     17    H      -69.8430  -87.3640   -8.6550 H       2  LIG2        0.0312
     18    H      -67.4770  -87.6680   -9.4650 H       2  LIG2        0.0309
     19    H      -71.0930  -88.2240  -10.4070 H       2  LIG2        0.0310
     20    H      -70.1040  -91.0180  -10.0280 H       2  LIG2        0.0331
     21    H      -66.7740  -89.2360  -10.9710 H       2  LIG2        0.0269
     22    H      -67.7680  -90.5210  -10.4100 H       2  LIG2        0.0269
     23    H      -72.8160  -88.4030   -9.1060 H       2  LIG2        0.0301
     24    H      -72.7100  -90.3880  -11.3840 H       2  LIG2        0.0269
     25    H      -72.1110  -91.9290  -10.7910 H       2  LIG2        0.0269
     26    H      -68.9320  -88.1590  -11.9290 H       2  LIG2        0.0293
     27    H      -68.1030  -89.4040  -12.8010 H       2  LIG2        0.0293
     28    H      -67.0460  -88.5510   -6.5860 H       2  LIG2        0.0235
     29    H      -68.7100  -88.3810   -6.0320 H       2  LIG2        0.0235
     30    H      -68.0070  -87.1770   -7.0980 H       2  LIG2        0.0235
     31    H      -67.5250  -90.8620   -7.4130 H       2  LIG2        0.0235
     32    H      -68.7150  -91.2440   -8.5980 H       2  LIG2        0.0235
     33    H      -69.2210  -90.8210   -6.9820 H       2  LIG2        0.0235
     34    H      -72.4240  -91.3140   -8.5210 H       2  LIG2        0.0268
     35    H      -73.7890  -90.5040   -9.2710 H       2  LIG2        0.0268
     36    H      -71.2460  -89.8320   -6.9090 H       2  LIG2        0.0233
     37    H      -72.8750  -89.1930   -6.7830 H       2  LIG2        0.0233
     38    H      -71.5270  -88.0950   -7.0060 H       2  LIG2        0.0233
     39    H      -68.9980  -92.0240  -12.0030 H       2  LIG2        0.0257
     40    H      -69.2430  -91.3320  -13.5970 H       2  LIG2        0.0257
     41    H      -70.5940  -92.0390  -12.7350 H       2  LIG2        0.0257
     42    H      -71.0370  -88.5290  -12.5340 H       2  LIG2        0.2102
@<TRIPOS>BOND
     1    40    16    1
     2     1    42    1
     3     1     9    1
     4    27    11    1
     5    41    16    1
     6    16    39    1
     7    16     9    1
     8     9    11    1
     9     9     6    1
    10    26    11    1
    11    11     7    1
    12    24    10    1
    13    21     7    1
    14    25    10    1
    15     7    22    1
    16     7     4    1
    17    10     6    1
    18    10    14    1
    19     6    20    1
    20     6     5    1
    21    19     5    1
    22     5     2    1
    23     5     8    1
    24     4    18    1
    25     4     2    1
    26     4     3    1
    27    35    14    1
    28    14     8    1
    29    14    34    1
    30    23     8    1
    31     2    17    1
    32     2     3    1
    33     8    15    1
    34    32    13    1
    35     3    13    1
    36     3    12    1
    37    13    31    1
    38    13    33    1
    39    15    38    1
    40    15    36    1
    41    15    37    1
    42    30    12    1
    43    12    28    1
    44    12    29    1
