@<TRIPOS>MOLECULE
11996452_5_run_18.pdb
 42 44 0 0 0
SMALL
GASTEIGER

@<TRIPOS>ATOM
      1    O      -70.8560  -89.4090  -12.8700 O.3     2  LIG2       -0.3886
      2    C      -69.5770  -88.3750   -8.9670 C.3     2  LIG2       -0.0289
      3    C      -68.5380  -89.0630   -8.0990 C.3     2  LIG2       -0.0284
      4    C      -68.1250  -88.5460   -9.4690 C.3     2  LIG2       -0.0319
      5    C      -70.8180  -89.0010   -9.6900 C.3     2  LIG2       -0.0294
      6    C      -70.6810  -90.2770  -10.5620 C.3     2  LIG2       -0.0090
      7    C      -67.7970  -89.4660  -10.6700 C.3     2  LIG2       -0.0468
      8    C      -72.1010  -89.1780   -8.8230 C.3     2  LIG2       -0.0404
      9    C      -69.9970  -90.0710  -11.9540 C.3     2  LIG2        0.0664
     10    C      -72.1080  -90.8540  -10.6030 C.3     2  LIG2       -0.0471
     11    C      -68.6940  -89.2260  -11.9000 C.3     2  LIG2       -0.0237
     12    C      -68.0470  -88.2460   -6.8880 C.3     2  LIG2       -0.0593
     13    C      -68.5130  -90.5770   -7.7730 C.3     2  LIG2       -0.0593
     14    C      -72.6990  -90.5340   -9.2330 C.3     2  LIG2       -0.0498
     15    C      -71.9200  -89.0700   -7.2950 C.3     2  LIG2       -0.0621
     16    C      -69.6920  -91.4400  -12.6080 C.3     2  LIG2       -0.0358
     17    H      -69.8430  -87.3640   -8.6550 H       2  LIG2        0.0312
     18    H      -67.4770  -87.6680   -9.4650 H       2  LIG2        0.0309
     19    H      -71.0930  -88.2240  -10.4070 H       2  LIG2        0.0310
     20    H      -70.1040  -91.0180  -10.0280 H       2  LIG2        0.0331
     21    H      -66.7740  -89.2360  -10.9710 H       2  LIG2        0.0269
     22    H      -67.7680  -90.5210  -10.4100 H       2  LIG2        0.0269
     23    H      -72.8160  -88.4030   -9.1060 H       2  LIG2        0.0301
     24    H      -72.7100  -90.3880  -11.3840 H       2  LIG2        0.0269
     25    H      -72.1110  -91.9290  -10.7910 H       2  LIG2        0.0269
     26    H      -68.9320  -88.1590  -11.9290 H       2  LIG2        0.0293
     27    H      -68.1030  -89.4040  -12.8010 H       2  LIG2        0.0293
     28    H      -67.0460  -88.5510   -6.5860 H       2  LIG2        0.0235
     29    H      -68.7100  -88.3810   -6.0320 H       2  LIG2        0.0235
     30    H      -68.0070  -87.1770   -7.0980 H       2  LIG2        0.0235
     31    H      -67.5250  -90.8620   -7.4130 H       2  LIG2        0.0235
     32    H      -68.7150  -91.2440   -8.5980 H       2  LIG2        0.0235
     33    H      -69.2210  -90.8210   -6.9820 H       2  LIG2        0.0235
     34    H      -72.4240  -91.3140   -8.5210 H       2  LIG2        0.0268
     35    H      -73.7890  -90.5040   -9.2710 H       2  LIG2        0.0268
     36    H      -71.2460  -89.8320   -6.9090 H       2  LIG2        0.0233
     37    H      -72.8750  -89.1930   -6.7830 H       2  LIG2        0.0233
     38    H      -71.5270  -88.0950   -7.0060 H       2  LIG2        0.0233
     39    H      -68.9980  -92.0240  -12.0030 H       2  LIG2        0.0257
     40    H      -69.2430  -91.3320  -13.5970 H       2  LIG2        0.0257
     41    H      -70.5940  -92.0390  -12.7350 H       2  LIG2        0.0257
     42    H      -71.0370  -88.5290  -12.5340 H       2  LIG2        0.2102
@<TRIPOS>BOND
     1    40    16    1
     2     1    42    1
     3     1     9    1
     4    27    11    1
     5    41    16    1
     6    16    39    1
     7    16     9    1
     8     9    11    1
     9     9     6    1
    10    26    11    1
    11    11     7    1
    12    24    10    1
    13    21     7    1
    14    25    10    1
    15     7    22    1
    16     7     4    1
    17    10     6    1
    18    10    14    1
    19     6    20    1
    20     6     5    1
    21    19     5    1
    22     5     2    1
    23     5     8    1
    24     4    18    1
    25     4     2    1
    26     4     3    1
    27    35    14    1
    28    14     8    1
    29    14    34    1
    30    23     8    1
    31     2    17    1
    32     2     3    1
    33     8    15    1
    34    32    13    1
    35     3    13    1
    36     3    12    1
    37    13    31    1
    38    13    33    1
    39    15    38    1
    40    15    36    1
    41    15    37    1
    42    30    12    1
    43    12    28    1
    44    12    29    1
@<TRIPOS>MOLECULE
11996452_5_run_22.pdb
 42 44 0 0 0
SMALL
GASTEIGER

@<TRIPOS>ATOM
      1    O      -66.5390  -87.9860   -9.4290 O.3     2  LIG2       -0.3886
      2    C      -68.5790  -89.5350   -6.0560 C.3     2  LIG2       -0.0289
      3    C      -69.7000  -90.5570   -6.0160 C.3     2  LIG2       -0.0284
      4    C      -68.3780  -90.9420   -6.6630 C.3     2  LIG2       -0.0319
      5    C      -68.4880  -88.2140   -6.8930 C.3     2  LIG2       -0.0294
      6    C      -68.7830  -88.2060   -8.4170 C.3     2  LIG2       -0.0090
      7    C      -68.1930  -91.1360   -8.1880 C.3     2  LIG2       -0.0468
      8    C      -69.1960  -86.9650   -6.2860 C.3     2  LIG2       -0.0404
      9    C      -67.6720  -88.8340   -9.3210 C.3     2  LIG2        0.0664
     10    C      -69.1340  -86.7370   -8.7200 C.3     2  LIG2       -0.0471
     11    C      -67.1380  -90.2010   -8.8100 C.3     2  LIG2       -0.0237
     12    C      -69.9830  -91.1710   -4.6310 C.3     2  LIG2       -0.0593
     13    C      -71.0050  -90.4790   -6.8470 C.3     2  LIG2       -0.0593
     14    C      -69.8580  -86.2420   -7.4710 C.3     2  LIG2       -0.0498
     15    C      -70.1990  -87.2290   -5.1430 C.3     2  LIG2       -0.0621
     16    C      -68.1900  -88.9980  -10.7700 C.3     2  LIG2       -0.0358
     17    H      -68.0740  -89.3650   -5.1030 H       2  LIG2        0.0312
     18    H      -67.7710  -91.6560   -6.1050 H       2  LIG2        0.0309
     19    H      -67.4250  -87.9670   -6.8330 H       2  LIG2        0.0310
     20    H      -69.6980  -88.7480   -8.6080 H       2  LIG2        0.0331
     21    H      -67.8400  -92.1580   -8.3330 H       2  LIG2        0.0269
     22    H      -69.1260  -91.0950   -8.7440 H       2  LIG2        0.0269
     23    H      -68.4320  -86.3010   -5.8790 H       2  LIG2        0.0301
     24    H      -68.2400  -86.1370   -8.8920 H       2  LIG2        0.0269
     25    H      -69.7650  -86.6400   -9.6050 H       2  LIG2        0.0269
     26    H      -66.3550  -90.0470   -8.0630 H       2  LIG2        0.0293
     27    H      -66.6440  -90.7310   -9.6270 H       2  LIG2        0.0293
     28    H      -70.4340  -92.1590   -4.7220 H       2  LIG2        0.0235
     29    H      -70.6670  -90.5420   -4.0590 H       2  LIG2        0.0235
     30    H      -69.0770  -91.2860   -4.0350 H       2  LIG2        0.0235
     31    H      -71.4830  -91.4580   -6.8810 H       2  LIG2        0.0235
     32    H      -70.8950  -90.1840   -7.8800 H       2  LIG2        0.0235
     33    H      -71.7210  -89.7940   -6.3920 H       2  LIG2        0.0235
     34    H      -70.9190  -86.4900   -7.5370 H       2  LIG2        0.0268
     35    H      -69.7860  -85.1580   -7.3780 H       2  LIG2        0.0268
     36    H      -71.0260  -87.8590   -5.4650 H       2  LIG2        0.0233
     37    H      -70.6260  -86.2940   -4.7800 H       2  LIG2        0.0233
     38    H      -69.7180  -87.7120   -4.2930 H       2  LIG2        0.0233
     39    H      -69.0470  -89.6720  -10.8130 H       2  LIG2        0.0257
     40    H      -67.4270  -89.4040  -11.4360 H       2  LIG2        0.0257
     41    H      -68.5080  -88.0450  -11.1970 H       2  LIG2        0.0257
     42    H      -66.0910  -87.9700   -8.5810 H       2  LIG2        0.2102
@<TRIPOS>BOND
     1    40    16    1
     2    41    16    1
     3    39    16    1
     4    16     9    1
     5    27    11    1
     6    25    10    1
     7     1     9    1
     8     1    42    1
     9     9    11    1
    10     9     6    1
    11    24    10    1
    12    11     7    1
    13    11    26    1
    14    22     7    1
    15    10     6    1
    16    10    14    1
    17    20     6    1
    18     6     5    1
    19    21     7    1
    20     7     4    1
    21    32    13    1
    22    34    14    1
    23    14    35    1
    24    14     8    1
    25     5    19    1
    26     5     8    1
    27     5     2    1
    28    31    13    1
    29    13    33    1
    30    13     3    1
    31     4    18    1
    32     4     2    1
    33     4     3    1
    34     8    23    1
    35     8    15    1
    36     2     3    1
    37     2    17    1
    38     3    12    1
    39    36    15    1
    40    15    37    1
    41    15    38    1
    42    28    12    1
    43    12    29    1
    44    12    30    1
@<TRIPOS>MOLECULE
11996452_5_run_3.pdb
 42 44 0 0 0
SMALL
GASTEIGER

@<TRIPOS>ATOM
      1    O      -67.0390  -87.2210   -8.2220 O.3     2  LIG2       -0.3886
      2    C      -70.4240  -88.9060  -10.1300 C.3     2  LIG2       -0.0289
      3    C      -71.6410  -89.5550   -9.4960 C.3     2  LIG2       -0.0284
      4    C      -71.2980  -88.1190   -9.1270 C.3     2  LIG2       -0.0319
      5    C      -68.9090  -89.2220   -9.8890 C.3     2  LIG2       -0.0294
      6    C      -68.3260  -89.3190   -8.4530 C.3     2  LIG2       -0.0090
      7    C      -70.7460  -87.6970   -7.7440 C.3     2  LIG2       -0.0468
      8    C      -68.3180  -90.4160  -10.6990 C.3     2  LIG2       -0.0404
      9    C      -68.1410  -87.9550   -7.7090 C.3     2  LIG2        0.0664
     10    C      -67.0480  -90.1590   -8.6260 C.3     2  LIG2       -0.0471
     11    C      -69.3690  -87.0080   -7.8080 C.3     2  LIG2       -0.0237
     12    C      -72.8490  -89.7450  -10.4350 C.3     2  LIG2       -0.0593
     13    C      -71.5970  -90.6860   -8.4390 C.3     2  LIG2       -0.0593
     14    C      -67.3820  -91.1570   -9.7300 C.3     2  LIG2       -0.0498
     15    C      -69.3350  -91.3710  -11.3590 C.3     2  LIG2       -0.0621
     16    C      -67.8020  -88.1990   -6.2200 C.3     2  LIG2       -0.0358
     17    H      -70.5450  -88.6180  -11.1760 H       2  LIG2        0.0312
     18    H      -71.9700  -87.3570   -9.5250 H       2  LIG2        0.0309
     19    H      -68.4120  -88.3470  -10.3130 H       2  LIG2        0.0310
     20    H      -68.9730  -89.9320   -7.8430 H       2  LIG2        0.0331
     21    H      -71.4490  -86.9700   -7.3350 H       2  LIG2        0.0269
     22    H      -70.7430  -88.5050   -7.0160 H       2  LIG2        0.0269
     23    H      -67.7040  -90.0120  -11.5070 H       2  LIG2        0.0301
     24    H      -66.1980  -89.5440   -8.9270 H       2  LIG2        0.0269
     25    H      -66.7660  -90.6720   -7.7050 H       2  LIG2        0.0269
     26    H      -69.3330  -86.4350   -8.7380 H       2  LIG2        0.0293
     27    H      -69.3190  -86.2580   -7.0160 H       2  LIG2        0.0293
     28    H      -73.7830  -89.7750   -9.8740 H       2  LIG2        0.0235
     29    H      -72.7640  -90.6770  -10.9940 H       2  LIG2        0.0235
     30    H      -72.9390  -88.9390  -11.1640 H       2  LIG2        0.0235
     31    H      -72.5560  -90.7510   -7.9260 H       2  LIG2        0.0235
     32    H      -70.8640  -90.5740   -7.6540 H       2  LIG2        0.0235
     33    H      -71.4230  -91.6550   -8.9060 H       2  LIG2        0.0235
     34    H      -67.8770  -92.0310   -9.3010 H       2  LIG2        0.0268
     35    H      -66.4780  -91.5120  -10.2280 H       2  LIG2        0.0268
     36    H      -69.9740  -91.8550  -10.6240 H       2  LIG2        0.0233
     37    H      -68.8230  -92.1590  -11.9110 H       2  LIG2        0.0233
     38    H      -69.9740  -90.8470  -12.0690 H       2  LIG2        0.0233
     39    H      -68.6090  -88.7260   -5.7090 H       2  LIG2        0.0257
     40    H      -67.6340  -87.2670   -5.6780 H       2  LIG2        0.0257
     41    H      -66.8990  -88.8000   -6.1020 H       2  LIG2        0.0257
     42    H      -66.2300  -87.6450   -7.9290 H       2  LIG2        0.2102
@<TRIPOS>BOND
     1    38    15    1
     2    37    15    1
     3    23     8    1
     4    15     8    1
     5    15    36    1
     6    17     2    1
     7    30    12    1
     8    29    12    1
     9     8     5    1
    10     8    14    1
    11    12    28    1
    12    12     3    1
    13    19     5    1
    14    35    14    1
    15     2     5    1
    16     2     3    1
    17     2     4    1
    18     5     6    1
    19    14    34    1
    20    14    10    1
    21    18     4    1
    22     3     4    1
    23     3    13    1
    24     4     7    1
    25    24    10    1
    26    33    13    1
    27    26    11    1
    28    10     6    1
    29    10    25    1
    30     6    20    1
    31     6     9    1
    32    13    31    1
    33    13    32    1
    34     1    42    1
    35     1     9    1
    36    11     7    1
    37    11     9    1
    38    11    27    1
    39     7    21    1
    40     7    22    1
    41     9    16    1
    42    16    41    1
    43    16    39    1
    44    16    40    1
@<TRIPOS>MOLECULE
11996452_5_run_1.pdb
 42 44 0 0 0
SMALL
GASTEIGER

@<TRIPOS>ATOM
      1    O      -65.1100  -84.0510  -18.4290 O.3     2  LIG2       -0.3886
      2    C      -63.0960  -81.2770  -15.9420 C.3     2  LIG2       -0.0289
      3    C      -61.6970  -81.3720  -15.3590 C.3     2  LIG2       -0.0284
      4    C      -61.8700  -81.4370  -16.8690 C.3     2  LIG2       -0.0319
      5    C      -64.2610  -82.3220  -15.8660 C.3     2  LIG2       -0.0294
      6    C      -64.0270  -83.8150  -16.2200 C.3     2  LIG2       -0.0090
      7    C      -61.6590  -82.7250  -17.7020 C.3     2  LIG2       -0.0468
      8    C      -65.1270  -82.2930  -14.5700 C.3     2  LIG2       -0.0404
      9    C      -63.8690  -84.1280  -17.7450 C.3     2  LIG2        0.0664
     10    C      -65.1750  -84.5510  -15.5070 C.3     2  LIG2       -0.0471
     11    C      -62.9060  -83.1640  -18.4930 C.3     2  LIG2       -0.0237
     12    C      -61.1290  -80.0550  -14.7960 C.3     2  LIG2       -0.0593
     13    C      -61.1460  -82.5800  -14.5620 C.3     2  LIG2       -0.0593
     14    C      -65.4040  -83.7640  -14.2200 C.3     2  LIG2       -0.0498
     15    C      -64.5450  -81.5170  -13.3700 C.3     2  LIG2       -0.0621
     16    C      -63.3910  -85.5860  -17.9450 C.3     2  LIG2       -0.0358
     17    H      -63.5370  -80.2790  -15.9250 H       2  LIG2        0.0312
     18    H      -61.5290  -80.5600  -17.4200 H       2  LIG2        0.0309
     19    H      -64.9440  -81.9740  -16.6450 H       2  LIG2        0.0310
     20    H      -63.1320  -84.1650  -15.7260 H       2  LIG2        0.0331
     21    H      -60.8790  -82.5020  -18.4320 H       2  LIG2        0.0269
     22    H      -61.2540  -83.5510  -17.1230 H       2  LIG2        0.0269
     23    H      -66.0840  -81.8240  -14.8080 H       2  LIG2        0.0301
     24    H      -66.0860  -84.5540  -16.1060 H       2  LIG2        0.0269
     25    H      -64.9250  -85.5910  -15.2920 H       2  LIG2        0.0269
     26    H      -63.4370  -82.2590  -18.7970 H       2  LIG2        0.0293
     27    H      -62.5800  -83.6240  -19.4280 H       2  LIG2        0.0293
     28    H      -60.0390  -80.0550  -14.8160 H       2  LIG2        0.0235
     29    H      -61.4440  -79.9040  -13.7630 H       2  LIG2        0.0235
     30    H      -61.4590  -79.1840  -15.3630 H       2  LIG2        0.0235
     31    H      -60.0570  -82.5400  -14.5340 H       2  LIG2        0.0235
     32    H      -61.3810  -83.5580  -14.9580 H       2  LIG2        0.0235
     33    H      -61.4900  -82.5610  -13.5290 H       2  LIG2        0.0235
     34    H      -64.7220  -84.1170  -13.4450 H       2  LIG2        0.0268
     35    H      -66.4190  -83.9090  -13.8440 H       2  LIG2        0.0268
     36    H      -63.6000  -81.9360  -13.0340 H       2  LIG2        0.0233
     37    H      -65.2310  -81.5440  -12.5230 H       2  LIG2        0.0233
     38    H      -64.3810  -80.4670  -13.6140 H       2  LIG2        0.0233
     39    H      -62.4130  -85.7500  -17.4890 H       2  LIG2        0.0257
     40    H      -63.3020  -85.8480  -19.0000 H       2  LIG2        0.0257
     41    H      -64.0790  -86.3040  -17.4980 H       2  LIG2        0.0257
     42    H      -64.9500  -84.1890  -19.3650 H       2  LIG2        0.2102
@<TRIPOS>BOND
     1    27    11    1
     2    42     1    1
     3    40    16    1
     4    26    11    1
     5    11     9    1
     6    11     7    1
     7    21     7    1
     8     1     9    1
     9    16     9    1
    10    16    41    1
    11    16    39    1
    12     9     6    1
    13     7    22    1
    14     7     4    1
    15    18     4    1
    16     4     2    1
    17     4     3    1
    18    19     5    1
    19     6     5    1
    20     6    20    1
    21     6    10    1
    22    24    10    1
    23     2    17    1
    24     2     5    1
    25     2     3    1
    26     5     8    1
    27    10    25    1
    28    10    14    1
    29    30    12    1
    30     3    12    1
    31     3    13    1
    32    32    13    1
    33    28    12    1
    34    23     8    1
    35    12    29    1
    36     8    14    1
    37     8    15    1
    38    13    31    1
    39    13    33    1
    40    14    35    1
    41    14    34    1
    42    38    15    1
    43    15    36    1
    44    15    37    1
@<TRIPOS>MOLECULE
11996452_5_run_20.pdb
 42 44 0 0 0
SMALL
GASTEIGER

@<TRIPOS>ATOM
      1    O      -71.5070  -87.3450   -9.9290 O.3     2  LIG2       -0.3886
      2    C      -69.0270  -87.4030   -6.4970 C.3     2  LIG2       -0.0289
      3    C      -67.9690  -88.4220   -6.1120 C.3     2  LIG2       -0.0284
      4    C      -67.8390  -87.6940   -7.4420 C.3     2  LIG2       -0.0319
      5    C      -70.5220  -87.6470   -6.8930 C.3     2  LIG2       -0.0294
      6    C      -70.9090  -88.7090   -7.9570 C.3     2  LIG2       -0.0090
      7    C      -68.0570  -88.3720   -8.8170 C.3     2  LIG2       -0.0468
      8    C      -71.5300  -87.7980   -5.7130 C.3     2  LIG2       -0.0404
      9    C      -70.5990  -88.3200   -9.4400 C.3     2  LIG2        0.0664
     10    C      -72.3840  -89.0250   -7.6480 C.3     2  LIG2       -0.0471
     11    C      -69.1780  -87.7290   -9.6560 C.3     2  LIG2       -0.0237
     12    C      -67.0020  -87.9770   -4.9970 C.3     2  LIG2       -0.0593
     13    C      -68.1880  -89.9540   -6.0560 C.3     2  LIG2       -0.0593
     14    C      -72.4980  -88.9180   -6.1300 C.3     2  LIG2       -0.0498
     15    C      -70.9230  -88.0550   -4.3180 C.3     2  LIG2       -0.0621
     16    C      -70.7890  -89.5450  -10.3660 C.3     2  LIG2       -0.0358
     17    H      -68.9710  -86.4540   -5.9610 H       2  LIG2        0.0312
     18    H      -67.0380  -86.9550   -7.4980 H       2  LIG2        0.0309
     19    H      -70.8040  -86.7000   -7.3570 H       2  LIG2        0.0310
     20    H      -70.3860  -89.6320   -7.7510 H       2  LIG2        0.0331
     21    H      -67.1290  -88.2510   -9.3770 H       2  LIG2        0.0269
     22    H      -68.1900  -89.4490   -8.7490 H       2  LIG2        0.0269
     23    H      -72.1070  -86.8750   -5.6340 H       2  LIG2        0.0301
     24    H      -73.0580  -88.3090   -8.1210 H       2  LIG2        0.0269
     25    H      -72.6730  -90.0190   -7.9950 H       2  LIG2        0.0269
     26    H      -69.1760  -86.6580   -9.4390 H       2  LIG2        0.0293
     27    H      -68.9070  -87.8010  -10.7110 H       2  LIG2        0.0293
     28    H      -66.0480  -88.4990   -5.0710 H       2  LIG2        0.0235
     29    H      -67.4210  -88.1860   -4.0120 H       2  LIG2        0.0235
     30    H      -66.7870  -86.9090   -5.0360 H       2  LIG2        0.0235
     31    H      -67.2260  -90.4660   -6.0680 H       2  LIG2        0.0235
     32    H      -68.7470  -90.3850   -6.8740 H       2  LIG2        0.0235
     33    H      -68.6910  -90.2460   -5.1340 H       2  LIG2        0.0235
     34    H      -72.2180  -89.8680   -5.6710 H       2  LIG2        0.0268
     35    H      -73.5230  -88.7040   -5.8250 H       2  LIG2        0.0268
     36    H      -70.3540  -88.9810   -4.2850 H       2  LIG2        0.0233
     37    H      -71.7070  -88.1300   -3.5640 H       2  LIG2        0.0233
     38    H      -70.2640  -87.2420   -4.0130 H       2  LIG2        0.0233
     39    H      -70.1030  -90.3520  -10.1050 H       2  LIG2        0.0257
     40    H      -70.6130  -89.2990  -11.4140 H       2  LIG2        0.0257
     41    H      -71.8010  -89.9490  -10.3020 H       2  LIG2        0.0257
     42    H      -71.2890  -87.1580  -10.8440 H       2  LIG2        0.2102
@<TRIPOS>BOND
     1    40    16    1
     2    42     1    1
     3    27    11    1
     4    16    41    1
     5    16    39    1
     6    16     9    1
     7     1     9    1
     8    11     9    1
     9    11    26    1
    10    11     7    1
    11     9     6    1
    12    21     7    1
    13     7    22    1
    14     7     4    1
    15    24    10    1
    16    25    10    1
    17     6    20    1
    18     6    10    1
    19     6     5    1
    20    10    14    1
    21    18     4    1
    22     4     2    1
    23     4     3    1
    24    19     5    1
    25     5     2    1
    26     5     8    1
    27    32    13    1
    28     2     3    1
    29     2    17    1
    30    14    35    1
    31    14     8    1
    32    14    34    1
    33     3    13    1
    34     3    12    1
    35    31    13    1
    36    13    33    1
    37     8    23    1
    38     8    15    1
    39    28    12    1
    40    30    12    1
    41    12    29    1
    42    15    36    1
    43    15    38    1
    44    15    37    1
@<TRIPOS>MOLECULE
11996452_5_run_21.pdb
 42 44 0 0 0
SMALL
GASTEIGER

@<TRIPOS>ATOM
      1    O      -66.7890  -89.3850   -7.1030 O.3     2  LIG2       -0.3886
      2    C      -70.7070  -88.8550   -8.6200 C.3     2  LIG2       -0.0289
      3    C      -71.6940  -87.7400   -8.3220 C.3     2  LIG2       -0.0284
      4    C      -70.3300  -87.3810   -8.8930 C.3     2  LIG2       -0.0319
      5    C      -69.9310  -89.7700   -7.6130 C.3     2  LIG2       -0.0294
      6    C      -69.1530  -89.1660   -6.4140 C.3     2  LIG2       -0.0090
      7    C      -69.2180  -86.6750   -8.0800 C.3     2  LIG2       -0.0468
      8    C      -70.7050  -91.0110   -7.0750 C.3     2  LIG2       -0.0404
      9    C      -67.8080  -88.4530   -6.7740 C.3     2  LIG2        0.0664
     10    C      -69.0370  -90.3360   -5.4190 C.3     2  LIG2       -0.0471
     11    C      -67.9100  -87.4840   -7.9850 C.3     2  LIG2       -0.0237
     12    C      -72.8870  -87.6390   -9.2930 C.3     2  LIG2       -0.0593
     13    C      -72.1140  -87.2810   -6.9040 C.3     2  LIG2       -0.0593
     14    C      -70.3350  -91.1210   -5.5860 C.3     2  LIG2       -0.0498
     15    C      -72.2330  -91.0150   -7.2870 C.3     2  LIG2       -0.0621
     16    C      -67.2660  -87.6820   -5.5470 C.3     2  LIG2       -0.0358
     17    H      -70.9340  -89.4470   -9.5080 H       2  LIG2        0.0312
     18    H      -70.3300  -87.0380   -9.9290 H       2  LIG2        0.0309
     19    H      -69.1480  -90.2030   -8.2400 H       2  LIG2        0.0310
     20    H      -69.7750  -88.4420   -5.9090 H       2  LIG2        0.0331
     21    H      -68.9840  -85.7490   -8.6080 H       2  LIG2        0.0269
     22    H      -69.5450  -86.3470   -7.0970 H       2  LIG2        0.0269
     23    H      -70.3200  -91.9000   -7.5770 H       2  LIG2        0.0301
     24    H      -68.1850  -90.9770   -5.6470 H       2  LIG2        0.0269
     25    H      -68.9170  -89.9900   -4.3900 H       2  LIG2        0.0269
     26    H      -67.7970  -88.0360   -8.9220 H       2  LIG2        0.0293
     27    H      -67.0710  -86.7860   -7.9690 H       2  LIG2        0.0293
     28    H      -73.2830  -86.6250   -9.3260 H       2  LIG2        0.0235
     29    H      -73.6950  -88.3050   -8.9880 H       2  LIG2        0.0235
     30    H      -72.6140  -87.9110  -10.3140 H       2  LIG2        0.0235
     31    H      -72.5670  -86.2910   -6.9540 H       2  LIG2        0.0235
     32    H      -71.3200  -87.1900   -6.1780 H       2  LIG2        0.0235
     33    H      -72.8630  -87.9490   -6.4780 H       2  LIG2        0.0235
     34    H      -71.1130  -90.6860   -4.9560 H       2  LIG2        0.0268
     35    H      -70.2110  -92.1590   -5.2730 H       2  LIG2        0.0268
     36    H      -72.7160  -90.1780   -6.7880 H       2  LIG2        0.0233
     37    H      -72.6760  -91.9290   -6.8900 H       2  LIG2        0.0233
     38    H      -72.4900  -90.9700   -8.3460 H       2  LIG2        0.0233
     39    H      -67.9580  -86.9010   -5.2300 H       2  LIG2        0.0257
     40    H      -66.3100  -87.1980   -5.7550 H       2  LIG2        0.0257
     41    H      -67.1070  -88.3400   -4.6920 H       2  LIG2        0.0257
     42    H      -65.9580  -88.9110   -7.1800 H       2  LIG2        0.2102
@<TRIPOS>BOND
     1    30    12    1
     2    18     4    1
     3    17     2    1
     4    28    12    1
     5    12    29    1
     6    12     3    1
     7    26    11    1
     8     4     2    1
     9     4     3    1
    10     4     7    1
    11     2     3    1
    12     2     5    1
    13    21     7    1
    14    38    15    1
    15     3    13    1
    16    19     5    1
    17     7    11    1
    18     7    22    1
    19    11    27    1
    20    11     9    1
    21     5     8    1
    22     5     6    1
    23    23     8    1
    24    15     8    1
    25    15    37    1
    26    15    36    1
    27    42     1    1
    28     1     9    1
    29     8    14    1
    30    31    13    1
    31    13    33    1
    32    13    32    1
    33     9     6    1
    34     9    16    1
    35     6    20    1
    36     6    10    1
    37    40    16    1
    38    24    10    1
    39    14    10    1
    40    14    35    1
    41    14    34    1
    42    16    39    1
    43    16    41    1
    44    10    25    1
@<TRIPOS>MOLECULE
11996452_5_run_8.pdb
 42 44 0 0 0
SMALL
GASTEIGER

@<TRIPOS>ATOM
      1    O      -71.2350  -86.1590   -6.7330 O.3     2  LIG2       -0.3886
      2    C      -68.2160  -88.9620   -7.7150 C.3     2  LIG2       -0.0289
      3    C      -68.2180  -90.0060   -8.8170 C.3     2  LIG2       -0.0284
      4    C      -68.3990  -88.5430   -9.1910 C.3     2  LIG2       -0.0319
      5    C      -69.2940  -88.7070   -6.6070 C.3     2  LIG2       -0.0294
      6    C      -70.7990  -88.5810   -6.9630 C.3     2  LIG2       -0.0090
      7    C      -69.7360  -87.9450   -9.6930 C.3     2  LIG2       -0.0468
      8    C      -69.2010  -89.6080   -5.3380 C.3     2  LIG2       -0.0404
      9    C      -71.2170  -87.2400   -7.6530 C.3     2  LIG2        0.0664
     10    C      -71.5220  -88.9010   -5.6420 C.3     2  LIG2       -0.0471
     11    C      -70.2770  -86.8040   -8.8100 C.3     2  LIG2       -0.0237
     12    C      -66.8430  -90.6250   -9.1390 C.3     2  LIG2       -0.0593
     13    C      -69.3440  -91.0410   -9.0600 C.3     2  LIG2       -0.0593
     14    C      -70.6520  -89.9570   -4.9660 C.3     2  LIG2       -0.0498
     15    C      -68.3190  -90.8690   -5.4510 C.3     2  LIG2       -0.0621
     16    C      -72.6670  -87.3410   -8.1820 C.3     2  LIG2       -0.0358
     17    H      -67.2360  -88.7410   -7.2890 H       2  LIG2        0.0312
     18    H      -67.5530  -88.0780   -9.6980 H       2  LIG2        0.0309
     19    H      -69.0280  -87.7130   -6.2410 H       2  LIG2        0.0310
     20    H      -71.0800  -89.3850   -7.6280 H       2  LIG2        0.0331
     21    H      -69.5390  -87.5210  -10.6790 H       2  LIG2        0.0269
     22    H      -70.5030  -88.6950   -9.8730 H       2  LIG2        0.0269
     23    H      -68.7860  -89.0120   -4.5230 H       2  LIG2        0.0301
     24    H      -71.6020  -88.0220   -5.0020 H       2  LIG2        0.0269
     25    H      -72.5350  -89.2740   -5.8070 H       2  LIG2        0.0269
     26    H      -69.4160  -86.2590   -8.4140 H       2  LIG2        0.0293
     27    H      -70.7920  -86.0850   -9.4500 H       2  LIG2        0.0293
     28    H      -66.8060  -90.9900  -10.1660 H       2  LIG2        0.0235
     29    H      -66.6290  -91.4650   -8.4770 H       2  LIG2        0.0235
     30    H      -66.0290  -89.9090   -9.0250 H       2  LIG2        0.0235
     31    H      -69.2620  -91.4480  -10.0680 H       2  LIG2        0.0235
     32    H      -70.3560  -90.6690   -8.9880 H       2  LIG2        0.0235
     33    H      -69.2620  -91.8820   -8.3730 H       2  LIG2        0.0235
     34    H      -70.9220  -90.9490   -5.3330 H       2  LIG2        0.0268
     35    H      -70.8060  -89.9610   -3.8850 H       2  LIG2        0.0268
     36    H      -68.6780  -91.5500   -6.2190 H       2  LIG2        0.0233
     37    H      -68.3090  -91.4190   -4.5100 H       2  LIG2        0.0233
     38    H      -67.2850  -90.6140   -5.6820 H       2  LIG2        0.0233
     39    H      -72.7630  -88.1230   -8.9360 H       2  LIG2        0.0257
     40    H      -73.0030  -86.4090   -8.6410 H       2  LIG2        0.0257
     41    H      -73.3750  -87.5730   -7.3850 H       2  LIG2        0.0257
     42    H      -71.5390  -85.3740   -7.1940 H       2  LIG2        0.2102
@<TRIPOS>BOND
     1    21     7    1
     2    28    12    1
     3    31    13    1
     4    22     7    1
     5    18     4    1
     6     7     4    1
     7     7    11    1
     8    27    11    1
     9     4     3    1
    10     4     2    1
    11    12    30    1
    12    12     3    1
    13    12    29    1
    14    13    32    1
    15    13     3    1
    16    13    33    1
    17    39    16    1
    18     3     2    1
    19    11    26    1
    20    11     9    1
    21    40    16    1
    22    16     9    1
    23    16    41    1
    24     2    17    1
    25     2     5    1
    26     9     6    1
    27     9     1    1
    28    20     6    1
    29    42     1    1
    30     6     5    1
    31     6    10    1
    32     5    19    1
    33     5     8    1
    34    36    15    1
    35    25    10    1
    36    38    15    1
    37    10    24    1
    38    10    14    1
    39    15     8    1
    40    15    37    1
    41     8    14    1
    42     8    23    1
    43    34    14    1
    44    14    35    1
@<TRIPOS>MOLECULE
11996452_5_run_5.pdb
 42 44 0 0 0
SMALL
GASTEIGER

@<TRIPOS>ATOM
      1    O      -70.0390  -85.9140   -8.3170 O.3     2  LIG2       -0.3886
      2    C      -70.8990  -89.3230  -10.6790 C.3     2  LIG2       -0.0289
      3    C      -71.6280  -90.5920  -10.2760 C.3     2  LIG2       -0.0284
      4    C      -72.3420  -89.2570  -10.1300 C.3     2  LIG2       -0.0319
      5    C      -69.6790  -88.6320   -9.9800 C.3     2  LIG2       -0.0294
      6    C      -69.6780  -88.3550   -8.4530 C.3     2  LIG2       -0.0090
      7    C      -72.6500  -88.5930   -8.7660 C.3     2  LIG2       -0.0468
      8    C      -68.2700  -89.1940  -10.3410 C.3     2  LIG2       -0.0404
      9    C      -70.5920  -87.1770   -7.9810 C.3     2  LIG2        0.0664
     10    C      -68.1850  -88.2180   -8.1010 C.3     2  LIG2       -0.0471
     11    C      -72.0190  -87.1970   -8.5970 C.3     2  LIG2       -0.0237
     12    C      -72.0890  -91.4850  -11.4460 C.3     2  LIG2       -0.0593
     13    C      -71.2880  -91.4590   -9.0390 C.3     2  LIG2       -0.0593
     14    C      -67.4730  -89.2010   -9.0260 C.3     2  LIG2       -0.0498
     15    C      -68.2360  -90.5690  -11.0400 C.3     2  LIG2       -0.0621
     16    C      -70.7020  -87.1690   -6.4380 C.3     2  LIG2       -0.0358
     17    H      -70.8040  -89.1650  -11.7550 H       2  LIG2        0.0312
     18    H      -73.1500  -89.0750  -10.8400 H       2  LIG2        0.0309
     19    H      -69.6840  -87.6340  -10.4250 H       2  LIG2        0.0310
     20    H      -70.0000  -89.2420   -7.9270 H       2  LIG2        0.0331
     21    H      -73.7320  -88.4640   -8.7180 H       2  LIG2        0.0269
     22    H      -72.4190  -89.2300   -7.9150 H       2  LIG2        0.0269
     23    H      -67.7830  -88.4900  -11.0190 H       2  LIG2        0.0301
     24    H      -67.8190  -87.2070   -8.2820 H       2  LIG2        0.0269
     25    H      -67.9870  -88.4520   -7.0530 H       2  LIG2        0.0269
     26    H      -72.0150  -86.7190   -9.5800 H       2  LIG2        0.0293
     27    H      -72.6890  -86.5850   -7.9910 H       2  LIG2        0.0293
     28    H      -72.9470  -92.0930  -11.1620 H       2  LIG2        0.0235
     29    H      -71.2900  -92.1590  -11.7590 H       2  LIG2        0.0235
     30    H      -72.3820  -90.9040  -12.3210 H       2  LIG2        0.0235
     31    H      -72.1290  -92.1090   -8.7990 H       2  LIG2        0.0235
     32    H      -71.0790  -90.9220   -8.1250 H       2  LIG2        0.0235
     33    H      -70.4340  -92.1060   -9.2340 H       2  LIG2        0.0235
     34    H      -67.4690  -90.1950   -8.5770 H       2  LIG2        0.0268
     35    H      -66.4320  -88.9130   -9.1800 H       2  LIG2        0.0268
     36    H      -68.6710  -91.3510  -10.4210 H       2  LIG2        0.0233
     37    H      -67.2100  -90.8640  -11.2620 H       2  LIG2        0.0233
     38    H      -68.7750  -90.5500  -11.9870 H       2  LIG2        0.0233
     39    H      -71.1590  -88.0870   -6.0670 H       2  LIG2        0.0257
     40    H      -71.3080  -86.3380   -6.0730 H       2  LIG2        0.0257
     41    H      -69.7240  -87.0800   -5.9620 H       2  LIG2        0.0257
     42    H      -70.7070  -85.2410   -8.1700 H       2  LIG2        0.2102
@<TRIPOS>BOND
     1    30    12    1
     2    38    15    1
     3    29    12    1
     4    17     2    1
     5    12    28    1
     6    12     3    1
     7    37    15    1
     8    15    36    1
     9    15     8    1
    10    23     8    1
    11    18     4    1
    12     2     3    1
    13     2     4    1
    14     2     5    1
    15    19     5    1
    16     8     5    1
    17     8    14    1
    18     3     4    1
    19     3    13    1
    20     4     7    1
    21     5     6    1
    22    26    11    1
    23    33    13    1
    24    35    14    1
    25    13    31    1
    26    13    32    1
    27    14    34    1
    28    14    10    1
    29     7    21    1
    30     7    11    1
    31     7    22    1
    32    11    27    1
    33    11     9    1
    34     6    10    1
    35     6     9    1
    36     6    20    1
    37     1    42    1
    38     1     9    1
    39    24    10    1
    40    10    25    1
    41     9    16    1
    42    16    40    1
    43    16    39    1
    44    16    41    1
@<TRIPOS>MOLECULE
11996452_5_run_7.pdb
 42 44 0 0 0
SMALL
GASTEIGER

@<TRIPOS>ATOM
      1    O      -66.5380  -89.4090   -8.7220 O.3     2  LIG2       -0.3886
      2    C      -70.3400  -90.8810   -7.5750 C.3     2  LIG2       -0.0289
      3    C      -71.6870  -90.1860   -7.6580 C.3     2  LIG2       -0.0284
      4    C      -70.8740  -90.3680   -8.9310 C.3     2  LIG2       -0.0319
      5    C      -69.0130  -90.3670   -6.9220 C.3     2  LIG2       -0.0294
      6    C      -68.4580  -88.9520   -7.2340 C.3     2  LIG2       -0.0090
      7    C      -70.1780  -89.2040   -9.6770 C.3     2  LIG2       -0.0468
      8    C      -68.8760  -90.5790   -5.3830 C.3     2  LIG2       -0.0404
      9    C      -67.8080  -88.7790   -8.6460 C.3     2  LIG2        0.0664
     10    C      -67.5390  -88.6400   -6.0380 C.3     2  LIG2       -0.0471
     11    C      -68.6520  -89.3750   -9.8080 C.3     2  LIG2       -0.0237
     12    C      -72.9140  -91.1070   -7.4970 C.3     2  LIG2       -0.0593
     13    C      -71.9960  -88.7760   -7.0980 C.3     2  LIG2       -0.0593
     14    C      -68.2170  -89.3000   -4.8410 C.3     2  LIG2       -0.0498
     15    C      -70.1700  -90.9260   -4.6180 C.3     2  LIG2       -0.0621
     16    C      -67.5320  -87.2840   -8.9300 C.3     2  LIG2       -0.0358
     17    H      -70.3850  -91.9630   -7.4390 H       2  LIG2        0.0312
     18    H      -71.2640  -91.1020   -9.6370 H       2  LIG2        0.0309
     19    H      -68.2630  -91.0390   -7.3450 H       2  LIG2        0.0310
     20    H      -69.2570  -88.2280   -7.1580 H       2  LIG2        0.0331
     21    H      -70.5860  -89.1910  -10.6880 H       2  LIG2        0.0269
     22    H      -70.4260  -88.2250   -9.2750 H       2  LIG2        0.0269
     23    H      -68.1840  -91.4060   -5.2110 H       2  LIG2        0.0301
     24    H      -66.5420  -89.0580   -6.1770 H       2  LIG2        0.0269
     25    H      -67.4210  -87.5660   -5.8800 H       2  LIG2        0.0269
     26    H      -68.4500  -90.4440   -9.9140 H       2  LIG2        0.0293
     27    H      -68.3340  -88.9360  -10.7550 H       2  LIG2        0.0293
     28    H      -73.7890  -90.6870   -7.9920 H       2  LIG2        0.0235
     29    H      -73.1600  -91.2470   -6.4440 H       2  LIG2        0.0235
     30    H      -72.7480  -92.0970   -7.9240 H       2  LIG2        0.0235
     31    H      -72.9080  -88.3880   -7.5530 H       2  LIG2        0.0235
     32    H      -71.2480  -88.0180   -7.2790 H       2  LIG2        0.0235
     33    H      -72.1680  -88.8070   -6.0230 H       2  LIG2        0.0235
     34    H      -68.9640  -88.6240   -4.4200 H       2  LIG2        0.0268
     35    H      -67.4970  -89.5160   -4.0510 H       2  LIG2        0.0268
     36    H      -70.9160  -90.1380   -4.7010 H       2  LIG2        0.0233
     37    H      -69.9660  -91.0680   -3.5570 H       2  LIG2        0.0233
     38    H      -70.6160  -91.8510   -4.9840 H       2  LIG2        0.0233
     39    H      -68.4550  -86.7030   -8.9380 H       2  LIG2        0.0257
     40    H      -67.0480  -87.1310   -9.8960 H       2  LIG2        0.0257
     41    H      -66.8800  -86.8410   -8.1760 H       2  LIG2        0.0257
     42    H      -65.9220  -88.9140   -8.1790 H       2  LIG2        0.2102
@<TRIPOS>BOND
     1    27    11    1
     2    21     7    1
     3    26    11    1
     4    40    16    1
     5    11     7    1
     6    11     9    1
     7     7    22    1
     8     7     4    1
     9    18     4    1
    10    39    16    1
    11     4     3    1
    12     4     2    1
    13    16     9    1
    14    16    41    1
    15     1     9    1
    16     1    42    1
    17     9     6    1
    18    28    12    1
    19    30    12    1
    20     3     2    1
    21     3    12    1
    22     3    13    1
    23     2    17    1
    24     2     5    1
    25    31    13    1
    26    12    29    1
    27    19     5    1
    28    32    13    1
    29     6    20    1
    30     6     5    1
    31     6    10    1
    32    13    33    1
    33     5     8    1
    34    24    10    1
    35    10    25    1
    36    10    14    1
    37     8    23    1
    38     8    14    1
    39     8    15    1
    40    38    15    1
    41    14    34    1
    42    14    35    1
    43    36    15    1
    44    15    37    1
@<TRIPOS>MOLECULE
11996452_5_run_5.pdb
 42 44 0 0 0
SMALL
GASTEIGER

@<TRIPOS>ATOM
      1    O      -71.2000  -88.5900  -10.4290 O.3     2  LIG2       -0.3886
      2    C      -70.7920  -87.5620   -6.3410 C.3     2  LIG2       -0.0289
      3    C      -69.5310  -87.1930   -5.5800 C.3     2  LIG2       -0.0284
      4    C      -69.9240  -86.3670   -6.7970 C.3     2  LIG2       -0.0319
      5    C      -71.0630  -88.8200   -7.2340 C.3     2  LIG2       -0.0294
      6    C      -70.0620  -89.2540   -8.3380 C.3     2  LIG2       -0.0090
      7    C      -69.1570  -86.4020   -8.1410 C.3     2  LIG2       -0.0468
      8    C      -71.5000  -90.1150   -6.4840 C.3     2  LIG2       -0.0404
      9    C      -70.0520  -88.3640   -9.6250 C.3     2  LIG2        0.0664
     10    C      -70.3780  -90.7430   -8.5630 C.3     2  LIG2       -0.0471
     11    C      -70.0240  -86.8370   -9.3390 C.3     2  LIG2       -0.0237
     12    C      -69.7610  -86.5310   -4.2070 C.3     2  LIG2       -0.0593
     13    C      -68.2260  -88.0250   -5.5650 C.3     2  LIG2       -0.0593
     14    C      -70.7720  -91.2720   -7.1870 C.3     2  LIG2       -0.0498
     15    C      -71.2730  -90.1360   -4.9570 C.3     2  LIG2       -0.0621
     16    C      -68.8520  -88.7390  -10.5260 C.3     2  LIG2       -0.0358
     17    H      -71.7270  -87.2930   -5.8450 H       2  LIG2        0.0312
     18    H      -70.2890  -85.3610   -6.5850 H       2  LIG2        0.0309
     19    H      -71.9550  -88.5280   -7.7920 H       2  LIG2        0.0310
     20    H      -69.0590  -89.2470   -7.9360 H       2  LIG2        0.0331
     21    H      -68.8260  -85.3810   -8.3390 H       2  LIG2        0.0269
     22    H      -68.2360  -86.9780   -8.0970 H       2  LIG2        0.0269
     23    H      -72.5710  -90.2560   -6.6380 H       2  LIG2        0.0301
     24    H      -71.2040  -90.8790   -9.2620 H       2  LIG2        0.0269
     25    H      -69.5220  -91.2890   -8.9630 H       2  LIG2        0.0269
     26    H      -71.0360  -86.4640   -9.1640 H       2  LIG2        0.0293
     27    H      -69.6790  -86.3040  -10.2270 H       2  LIG2        0.0293
     28    H      -68.9160  -85.9040   -3.9250 H       2  LIG2        0.0235
     29    H      -69.8930  -87.2840   -3.4290 H       2  LIG2        0.0235
     30    H      -70.6480  -85.8970   -4.1950 H       2  LIG2        0.0235
     31    H      -67.3960  -87.4080   -5.2220 H       2  LIG2        0.0235
     32    H      -67.9050  -88.4250   -6.5160 H       2  LIG2        0.0235
     33    H      -68.3010  -88.8640   -4.8740 H       2  LIG2        0.0235
     34    H      -69.8770  -91.5640   -6.6340 H       2  LIG2        0.0268
     35    H      -71.4020  -92.1590   -7.2700 H       2  LIG2        0.0268
     36    H      -70.2200  -90.0380   -4.7020 H       2  LIG2        0.0233
     37    H      -71.6240  -91.0750   -4.5280 H       2  LIG2        0.0233
     38    H      -71.8170  -89.3340   -4.4600 H       2  LIG2        0.0233
     39    H      -67.9030  -88.5630  -10.0180 H       2  LIG2        0.0257
     40    H      -68.8340  -88.1590  -11.4500 H       2  LIG2        0.0257
     41    H      -68.8730  -89.7910  -10.8140 H       2  LIG2        0.0257
     42    H      -71.1830  -87.9730  -11.1630 H       2  LIG2        0.2102
@<TRIPOS>BOND
     1    40    16    1
     2    42     1    1
     3    41    16    1
     4    16    39    1
     5    16     9    1
     6     1     9    1
     7    27    11    1
     8     9    11    1
     9     9     6    1
    10    11    26    1
    11    11     7    1
    12    24    10    1
    13    25    10    1
    14    10     6    1
    15    10    14    1
    16    21     7    1
    17     6    20    1
    18     6     5    1
    19     7    22    1
    20     7     4    1
    21    19     5    1
    22    35    14    1
    23     5     8    1
    24     5     2    1
    25    14    34    1
    26    14     8    1
    27     4    18    1
    28     4     2    1
    29     4     3    1
    30    23     8    1
    31    32    13    1
    32     8    15    1
    33     2    17    1
    34     2     3    1
    35     3    13    1
    36     3    12    1
    37    13    31    1
    38    13    33    1
    39    15    36    1
    40    15    37    1
    41    15    38    1
    42    12    30    1
    43    12    28    1
    44    12    29    1
