@<TRIPOS>MOLECULE
11996452_8_run_15.pdb
 42 44 0 0 0
SMALL
GASTEIGER

@<TRIPOS>ATOM
      1    O      -66.5390  -88.2800   -9.4290 O.3     2  LIG2       -0.3886
      2    C      -70.8350  -89.2860   -8.5940 C.3     2  LIG2       -0.0289
      3    C      -71.9730  -88.4980   -7.9550 C.3     2  LIG2       -0.0284
      4    C      -70.5590  -88.2580   -7.4880 C.3     2  LIG2       -0.0319
      5    C      -70.3100  -89.0140  -10.0330 C.3     2  LIG2       -0.0294
      6    C      -68.7920  -88.6770  -10.2350 C.3     2  LIG2       -0.0090
      7    C      -69.7170  -87.0230   -7.8520 C.3     2  LIG2       -0.0468
      8    C      -70.6280  -90.1810  -10.9970 C.3     2  LIG2       -0.0404
      9    C      -67.8590  -88.5460   -8.9770 C.3     2  LIG2        0.0664
     10    C      -68.3040  -89.6410  -11.3400 C.3     2  LIG2       -0.0471
     11    C      -68.2200  -87.3330   -8.0570 C.3     2  LIG2       -0.0237
     12    C      -72.7510  -87.4080   -8.7290 C.3     2  LIG2       -0.0593
     13    C      -72.8960  -89.2840   -7.0050 C.3     2  LIG2       -0.0593
     14    C      -69.5570  -90.0930  -12.0860 C.3     2  LIG2       -0.0498
     15    C      -72.0680  -90.1560  -11.5380 C.3     2  LIG2       -0.0621
     16    C      -67.6840  -89.8450   -8.1440 C.3     2  LIG2       -0.0358
     17    H      -70.7350  -90.3350   -8.3150 H       2  LIG2        0.0312
     18    H      -70.3130  -88.6220   -6.4890 H       2  LIG2        0.0309
     19    H      -70.8340  -88.1470  -10.4290 H       2  LIG2        0.0310
     20    H      -68.7630  -87.6880  -10.7000 H       2  LIG2        0.0331
     21    H      -70.0870  -86.5410   -8.7540 H       2  LIG2        0.0269
     22    H      -69.8230  -86.2770   -7.0630 H       2  LIG2        0.0269
     23    H      -70.4770  -91.1320  -10.4800 H       2  LIG2        0.0301
     24    H      -67.6000  -89.1580  -12.0180 H       2  LIG2        0.0269
     25    H      -67.7940  -90.5070  -10.9200 H       2  LIG2        0.0269
     26    H      -67.7840  -86.4170   -8.4620 H       2  LIG2        0.0293
     27    H      -67.7550  -87.4630   -7.0760 H       2  LIG2        0.0293
     28    H      -73.2450  -86.7250   -8.0370 H       2  LIG2        0.0235
     29    H      -73.5230  -87.8580   -9.3530 H       2  LIG2        0.0235
     30    H      -72.1380  -86.7930   -9.3820 H       2  LIG2        0.0235
     31    H      -73.3640  -88.6220   -6.2750 H       2  LIG2        0.0235
     32    H      -72.3550  -90.0490   -6.4470 H       2  LIG2        0.0235
     33    H      -73.6890  -89.7870   -7.5590 H       2  LIG2        0.0235
     34    H      -69.4010  -91.0480  -12.5880 H       2  LIG2        0.0268
     35    H      -69.8340  -89.3610  -12.8460 H       2  LIG2        0.0268
     36    H      -72.2780  -89.2360  -12.0840 H       2  LIG2        0.0233
     37    H      -72.7920  -90.2320  -10.7250 H       2  LIG2        0.0233
     38    H      -72.2470  -90.9920  -12.2150 H       2  LIG2        0.0233
     39    H      -68.5880  -90.1500   -7.6250 H       2  LIG2        0.0257
     40    H      -66.9260  -89.7220   -7.3680 H       2  LIG2        0.0257
     41    H      -67.3670  -90.6910   -8.7540 H       2  LIG2        0.0257
     42    H      -65.9660  -88.2100   -8.6620 H       2  LIG2        0.2102
@<TRIPOS>BOND
     1    35    14    1
     2    34    14    1
     3    38    15    1
     4    14    10    1
     5    14     8    1
     6    36    15    1
     7    24    10    1
     8    15     8    1
     9    15    37    1
    10    10    25    1
    11    10     6    1
    12     8    23    1
    13     8     5    1
    14    20     6    1
    15    19     5    1
    16     6     5    1
    17     6     9    1
    18     5     2    1
    19     1     9    1
    20     1    42    1
    21    30    12    1
    22    29    12    1
    23     9    16    1
    24     9    11    1
    25    41    16    1
    26    21     7    1
    27    12    28    1
    28    12     3    1
    29     2    17    1
    30     2     3    1
    31     2     4    1
    32    26    11    1
    33    16    39    1
    34    16    40    1
    35    11     7    1
    36    11    27    1
    37     3     4    1
    38     3    13    1
    39     7     4    1
    40     7    22    1
    41    33    13    1
    42     4    18    1
    43    13    32    1
    44    13    31    1
@<TRIPOS>MOLECULE
11996452_8_run_13.pdb
 42 44 0 0 0
SMALL
GASTEIGER

@<TRIPOS>ATOM
      1    O      -66.5390  -89.6290   -8.4710 O.3     2  LIG2       -0.3886
      2    C      -70.5960  -87.7190   -8.2300 C.3     2  LIG2       -0.0289
      3    C      -71.9870  -88.1980   -8.6340 C.3     2  LIG2       -0.0284
      4    C      -70.7900  -88.6590   -9.4290 C.3     2  LIG2       -0.0319
      5    C      -69.8470  -88.2390   -6.9690 C.3     2  LIG2       -0.0294
      6    C      -68.4290  -88.8870   -7.1440 C.3     2  LIG2       -0.0090
      7    C      -70.1740  -90.0660   -9.3420 C.3     2  LIG2       -0.0468
      8    C      -69.6940  -87.1420   -5.8910 C.3     2  LIG2       -0.0404
      9    C      -67.8370  -89.0640   -8.5890 C.3     2  LIG2        0.0664
     10    C      -67.5210  -88.1590   -6.1270 C.3     2  LIG2       -0.0471
     11    C      -68.6370  -90.0780   -9.4710 C.3     2  LIG2       -0.0237
     12    C      -72.7960  -89.1900   -7.7670 C.3     2  LIG2       -0.0593
     13    C      -72.9000  -87.1510   -9.2980 C.3     2  LIG2       -0.0593
     14    C      -68.4600  -87.5520   -5.0860 C.3     2  LIG2       -0.0498
     15    C      -70.9560  -86.9420   -5.0350 C.3     2  LIG2       -0.0621
     16    C      -67.5690  -87.7430   -9.3620 C.3     2  LIG2       -0.0358
     17    H      -70.3360  -86.6870   -8.4620 H       2  LIG2        0.0312
     18    H      -70.6910  -88.2460  -10.4340 H       2  LIG2        0.0309
     19    H      -70.4480  -89.0250   -6.5150 H       2  LIG2        0.0310
     20    H      -68.5140  -89.9060   -6.7580 H       2  LIG2        0.0331
     21    H      -70.4380  -90.5590   -8.4090 H       2  LIG2        0.0269
     22    H      -70.6030  -90.6890  -10.1290 H       2  LIG2        0.0269
     23    H      -69.4570  -86.1900   -6.3720 H       2  LIG2        0.0301
     24    H      -66.8090  -88.8390   -5.6590 H       2  LIG2        0.0269
     25    H      -66.9390  -87.3700   -6.6020 H       2  LIG2        0.0269
     26    H      -68.3310  -91.0990   -9.2330 H       2  LIG2        0.0293
     27    H      -68.3760  -89.9390  -10.5230 H       2  LIG2        0.0293
     28    H      -73.5610  -89.6860   -8.3660 H       2  LIG2        0.0235
     29    H      -73.3020  -88.6670   -6.9570 H       2  LIG2        0.0235
     30    H      -72.2040  -89.9790   -7.3110 H       2  LIG2        0.0235
     31    H      -73.6450  -87.6270   -9.9370 H       2  LIG2        0.0235
     32    H      -72.3400  -86.4510   -9.9190 H       2  LIG2        0.0235
     33    H      -73.4300  -86.5630   -8.5470 H       2  LIG2        0.0235
     34    H      -67.9990  -86.7050   -4.5780 H       2  LIG2        0.0268
     35    H      -68.7180  -88.2920   -4.3270 H       2  LIG2        0.0268
     36    H      -71.2370  -87.8560   -4.5100 H       2  LIG2        0.0233
     37    H      -71.8040  -86.6400   -5.6520 H       2  LIG2        0.0233
     38    H      -70.8040  -86.1630   -4.2870 H       2  LIG2        0.0233
     39    H      -68.4770  -87.2140   -9.6390 H       2  LIG2        0.0257
     40    H      -67.0390  -87.9290  -10.2970 H       2  LIG2        0.0257
     41    H      -66.9560  -87.0450   -8.7930 H       2  LIG2        0.0257
     42    H      -65.9820  -89.0070   -7.9970 H       2  LIG2        0.2102
@<TRIPOS>BOND
     1    27    11    1
     2    18     4    1
     3    40    16    1
     4    22     7    1
     5    31    13    1
     6    32    13    1
     7    39    16    1
     8    11     7    1
     9    11    26    1
    10    11     9    1
    11     4     7    1
    12     4     3    1
    13     4     2    1
    14    16    41    1
    15    16     9    1
    16     7    21    1
    17    13     3    1
    18    13    33    1
    19     3     2    1
    20     3    12    1
    21     9     1    1
    22     9     6    1
    23     1    42    1
    24    17     2    1
    25    28    12    1
    26     2     5    1
    27    12    30    1
    28    12    29    1
    29     6     5    1
    30     6    20    1
    31     6    10    1
    32     5    19    1
    33     5     8    1
    34    25    10    1
    35    23     8    1
    36    10    24    1
    37    10    14    1
    38     8    14    1
    39     8    15    1
    40    37    15    1
    41    14    34    1
    42    14    35    1
    43    15    36    1
    44    15    38    1
@<TRIPOS>MOLECULE
11996452_8_run_22.pdb
 42 44 0 0 0
SMALL
GASTEIGER

@<TRIPOS>ATOM
      1    O      -67.7890  -90.3570  -12.4320 O.3     2  LIG2       -0.3886
      2    C      -69.6430  -89.3490   -8.4680 C.3     2  LIG2       -0.0289
      3    C      -69.4880  -88.1560   -7.5310 C.3     2  LIG2       -0.0284
      4    C      -68.3090  -88.5960   -8.3630 C.3     2  LIG2       -0.0319
      5    C      -70.4460  -89.2910   -9.8000 C.3     2  LIG2       -0.0294
      6    C      -69.7220  -89.6660  -11.1390 C.3     2  LIG2       -0.0090
      7    C      -67.8010  -87.8610   -9.6150 C.3     2  LIG2       -0.0468
      8    C      -71.7280  -90.1530   -9.7420 C.3     2  LIG2       -0.0404
      9    C      -68.1890  -90.0160  -11.1120 C.3     2  LIG2        0.0664
     10    C      -70.6390  -90.7070  -11.8210 C.3     2  LIG2       -0.0471
     11    C      -67.2800  -88.8050  -10.7180 C.3     2  LIG2       -0.0237
     12    C      -70.1920  -86.8050   -7.8000 C.3     2  LIG2       -0.0593
     13    C      -69.4350  -88.4760   -6.0250 C.3     2  LIG2       -0.0593
     14    C      -72.0210  -90.5180  -11.1990 C.3     2  LIG2       -0.0498
     15    C      -72.9010  -89.4630   -9.0260 C.3     2  LIG2       -0.0621
     16    C      -67.8120  -91.2840  -10.2980 C.3     2  LIG2       -0.0358
     17    H      -69.6760  -90.3400   -8.0150 H       2  LIG2        0.0312
     18    H      -67.4870  -89.0680   -7.8220 H       2  LIG2        0.0309
     19    H      -70.7800  -88.2660   -9.9520 H       2  LIG2        0.0310
     20    H      -69.7880  -88.7800  -11.7760 H       2  LIG2        0.0331
     21    H      -68.5750  -87.2310  -10.0480 H       2  LIG2        0.0269
     22    H      -67.0020  -87.1760   -9.3240 H       2  LIG2        0.0269
     23    H      -71.5150  -91.0880   -9.2180 H       2  LIG2        0.0301
     24    H      -70.6760  -90.5690  -12.9010 H       2  LIG2        0.0269
     25    H      -70.2920  -91.7240  -11.6440 H       2  LIG2        0.0269
     26    H      -67.1090  -88.1700  -11.5910 H       2  LIG2        0.0293
     27    H      -66.2910  -89.1650  -10.4280 H       2  LIG2        0.0293
     28    H      -69.6910  -85.9990   -7.2640 H       2  LIG2        0.0235
     29    H      -71.2250  -86.8360   -7.4560 H       2  LIG2        0.0235
     30    H      -70.2170  -86.5090   -8.8460 H       2  LIG2        0.0235
     31    H      -68.8980  -87.7010   -5.4780 H       2  LIG2        0.0235
     32    H      -68.9330  -89.4230   -5.8240 H       2  LIG2        0.0235
     33    H      -70.4400  -88.5470   -5.6060 H       2  LIG2        0.0235
     34    H      -72.6250  -91.4220  -11.2840 H       2  LIG2        0.0268
     35    H      -72.5590  -89.7130  -11.7010 H       2  LIG2        0.0268
     36    H      -73.1780  -88.5270   -9.5140 H       2  LIG2        0.0233
     37    H      -72.6470  -89.2330   -7.9900 H       2  LIG2        0.0233
     38    H      -73.7840  -90.1030   -9.0120 H       2  LIG2        0.0233
     39    H      -67.9540  -91.1670   -9.2280 H       2  LIG2        0.0257
     40    H      -66.7610  -91.5440  -10.4300 H       2  LIG2        0.0257
     41    H      -68.3870  -92.1590  -10.6020 H       2  LIG2        0.0257
     42    H      -66.8420  -90.5130  -12.4290 H       2  LIG2        0.2102
@<TRIPOS>BOND
     1    24    10    1
     2     1    42    1
     3     1     9    1
     4    10    25    1
     5    10    14    1
     6    10     6    1
     7    20     6    1
     8    35    14    1
     9    26    11    1
    10    34    14    1
    11    14     8    1
    12     6     9    1
    13     6     5    1
    14     9    11    1
    15     9    16    1
    16    11    27    1
    17    11     7    1
    18    41    16    1
    19    40    16    1
    20    16    39    1
    21    21     7    1
    22    19     5    1
    23     5     8    1
    24     5     2    1
    25     8    23    1
    26     8    15    1
    27     7    22    1
    28     7     4    1
    29    36    15    1
    30    15    38    1
    31    15    37    1
    32    30    12    1
    33     2     4    1
    34     2    17    1
    35     2     3    1
    36     4    18    1
    37     4     3    1
    38    12     3    1
    39    12    29    1
    40    12    28    1
    41     3    13    1
    42    13    32    1
    43    13    33    1
    44    13    31    1
@<TRIPOS>MOLECULE
11996452_8_run_23.pdb
 42 44 0 0 0
SMALL
GASTEIGER

@<TRIPOS>ATOM
      1    O      -70.4060  -89.1590  -11.7740 O.3     2  LIG2       -0.3886
      2    C      -69.4660  -89.4190   -7.3900 C.3     2  LIG2       -0.0289
      3    C      -68.2140  -89.0920   -6.5830 C.3     2  LIG2       -0.0284
      4    C      -68.0670  -89.5970   -7.9970 C.3     2  LIG2       -0.0319
      5    C      -70.4150  -88.3330   -7.9730 C.3     2  LIG2       -0.0294
      6    C      -70.6940  -88.3190   -9.5160 C.3     2  LIG2       -0.0090
      7    C      -67.6920  -88.7190   -9.2030 C.3     2  LIG2       -0.0468
      8    C      -71.7970  -88.3380   -7.2810 C.3     2  LIG2       -0.0404
      9    C      -69.9510  -89.3500  -10.4420 C.3     2  LIG2        0.0664
     10    C      -72.2330  -88.2780   -9.6520 C.3     2  LIG2       -0.0471
     11    C      -68.4050  -89.1260  -10.5100 C.3     2  LIG2       -0.0237
     12    C      -67.8340  -87.6390   -6.2140 C.3     2  LIG2       -0.0593
     13    C      -67.8570  -90.0750   -5.4520 C.3     2  LIG2       -0.0593
     14    C      -72.7570  -87.7510   -8.3180 C.3     2  LIG2       -0.0498
     15    C      -71.8120  -87.6000   -5.9310 C.3     2  LIG2       -0.0621
     16    C      -70.2860  -90.8430  -10.1730 C.3     2  LIG2       -0.0358
     17    H      -70.0010  -90.3330   -7.1340 H       2  LIG2        0.0312
     18    H      -67.6730  -90.6090   -8.1090 H       2  LIG2        0.0309
     19    H      -69.9810  -87.3560   -7.7690 H       2  LIG2        0.0310
     20    H      -70.3600  -87.3420   -9.8740 H       2  LIG2        0.0331
     21    H      -67.9090  -87.6690   -9.0140 H       2  LIG2        0.0269
     22    H      -66.6120  -88.7670   -9.3550 H       2  LIG2        0.0269
     23    H      -72.1130  -89.3690   -7.1060 H       2  LIG2        0.0301
     24    H      -72.5510  -87.6390  -10.4750 H       2  LIG2        0.0269
     25    H      -72.6460  -89.2680   -9.8420 H       2  LIG2        0.0269
     26    H      -68.1760  -88.3340  -11.2270 H       2  LIG2        0.0293
     27    H      -67.9190  -90.0200  -10.9060 H       2  LIG2        0.0293
     28    H      -66.7710  -87.5690   -5.9790 H       2  LIG2        0.0235
     29    H      -68.3870  -87.3090   -5.3350 H       2  LIG2        0.0235
     30    H      -68.0230  -86.9090   -6.9960 H       2  LIG2        0.0235
     31    H      -66.7890  -90.0510   -5.2340 H       2  LIG2        0.0235
     32    H      -68.1130  -91.1040   -5.7060 H       2  LIG2        0.0235
     33    H      -68.3920  -89.8250   -4.5350 H       2  LIG2        0.0235
     34    H      -73.7890  -88.0560   -8.1440 H       2  LIG2        0.0268
     35    H      -72.7290  -86.6600   -8.3000 H       2  LIG2        0.0268
     36    H      -71.5230  -86.5530   -6.0410 H       2  LIG2        0.0233
     37    H      -71.1210  -88.0620   -5.2250 H       2  LIG2        0.0233
     38    H      -72.8050  -87.6240   -5.4810 H       2  LIG2        0.0233
     39    H      -69.9110  -91.2040   -9.2200 H       2  LIG2        0.0257
     40    H      -69.8440  -91.4930  -10.9300 H       2  LIG2        0.0257
     41    H      -71.3590  -91.0380  -10.1870 H       2  LIG2        0.0257
     42    H      -70.4960  -88.2160  -11.9290 H       2  LIG2        0.2102
@<TRIPOS>BOND
     1    42     1    1
     2     1     9    1
     3    26    11    1
     4    40    16    1
     5    27    11    1
     6    11     9    1
     7    11     7    1
     8    24    10    1
     9     9    16    1
    10     9     6    1
    11    41    16    1
    12    16    39    1
    13    20     6    1
    14    25    10    1
    15    10     6    1
    16    10    14    1
    17     6     5    1
    18    22     7    1
    19     7    21    1
    20     7     4    1
    21    14    35    1
    22    14    34    1
    23    14     8    1
    24    18     4    1
    25     4     2    1
    26     4     3    1
    27     5    19    1
    28     5     2    1
    29     5     8    1
    30     2    17    1
    31     2     3    1
    32     8    23    1
    33     8    15    1
    34    30    12    1
    35     3    12    1
    36     3    13    1
    37    12    28    1
    38    12    29    1
    39    36    15    1
    40    15    38    1
    41    15    37    1
    42    32    13    1
    43    13    31    1
    44    13    33    1
@<TRIPOS>MOLECULE
11996452_8_run_17.pdb
 42 44 0 0 0
SMALL
GASTEIGER

@<TRIPOS>ATOM
      1    O      -72.9000  -86.4090   -7.3610 O.3     2  LIG2       -0.3886
      2    C      -69.5250  -89.3700   -7.4550 C.3     2  LIG2       -0.0289
      3    C      -68.6320  -89.8800   -8.5810 C.3     2  LIG2       -0.0284
      4    C      -70.0580  -89.4930   -8.8900 C.3     2  LIG2       -0.0319
      5    C      -69.3740  -87.9580   -6.8190 C.3     2  LIG2       -0.0294
      6    C      -70.6070  -86.9890   -6.8230 C.3     2  LIG2       -0.0090
      7    C      -70.4740  -88.2000   -9.6130 C.3     2  LIG2       -0.0468
      8    C      -68.8830  -88.0310   -5.3540 C.3     2  LIG2       -0.0404
      9    C      -71.9350  -87.4370   -7.5350 C.3     2  LIG2        0.0664
     10    C      -70.7540  -86.5110   -5.3610 C.3     2  LIG2       -0.0471
     11    C      -71.7900  -87.5920   -9.0850 C.3     2  LIG2       -0.0237
     12    C      -67.4460  -89.0510   -9.1280 C.3     2  LIG2       -0.0593
     13    C      -68.3090  -91.3860   -8.5640 C.3     2  LIG2       -0.0593
     14    C      -69.3940  -86.7440   -4.7050 C.3     2  LIG2       -0.0498
     15    C      -67.3630  -88.2320   -5.2250 C.3     2  LIG2       -0.0621
     16    C      -72.6350  -88.6760   -6.9130 C.3     2  LIG2       -0.0358
     17    H      -69.8940  -90.1030   -6.7380 H       2  LIG2        0.0312
     18    H      -70.7400  -90.3120   -9.1230 H       2  LIG2        0.0309
     19    H      -68.6050  -87.4170   -7.3670 H       2  LIG2        0.0310
     20    H      -70.2890  -86.1000   -7.3740 H       2  LIG2        0.0331
     21    H      -69.7000  -87.4390   -9.5440 H       2  LIG2        0.0269
     22    H      -70.5790  -88.4090  -10.6790 H       2  LIG2        0.0269
     23    H      -69.3780  -88.8620   -4.8460 H       2  LIG2        0.0301
     24    H      -71.0380  -85.4600   -5.3040 H       2  LIG2        0.0269
     25    H      -71.5200  -87.0740   -4.8290 H       2  LIG2        0.0269
     26    H      -71.8740  -86.6150   -9.5660 H       2  LIG2        0.0293
     27    H      -72.6240  -88.1780   -9.4770 H       2  LIG2        0.0293
     28    H      -67.1730  -89.3870  -10.1280 H       2  LIG2        0.0235
     29    H      -66.5700  -89.1700   -8.4910 H       2  LIG2        0.0235
     30    H      -67.6380  -87.9840   -9.2040 H       2  LIG2        0.0235
     31    H      -68.0770  -91.7490   -9.5660 H       2  LIG2        0.0235
     32    H      -69.1430  -91.9810   -8.1890 H       2  LIG2        0.0235
     33    H      -67.4500  -91.5930   -7.9240 H       2  LIG2        0.0235
     34    H      -69.4830  -86.8360   -3.6220 H       2  LIG2        0.0268
     35    H      -68.7220  -85.9100   -4.9110 H       2  LIG2        0.0268
     36    H      -66.8070  -87.4210   -5.6990 H       2  LIG2        0.0233
     37    H      -67.0500  -89.1660   -5.6940 H       2  LIG2        0.0233
     38    H      -67.0600  -88.2730   -4.1790 H       2  LIG2        0.0233
     39    H      -72.0780  -89.5990   -7.0490 H       2  LIG2        0.0257
     40    H      -73.6110  -88.8520   -7.3680 H       2  LIG2        0.0257
     41    H      -72.8070  -88.5640   -5.8430 H       2  LIG2        0.0257
     42    H      -72.5230  -85.5850   -7.6790 H       2  LIG2        0.2102
@<TRIPOS>BOND
     1    22     7    1
     2    28    12    1
     3     7    21    1
     4     7    11    1
     5     7     4    1
     6    26    11    1
     7    31    13    1
     8    27    11    1
     9    30    12    1
    10    12     3    1
    11    12    29    1
    12    18     4    1
    13    11     9    1
    14     4     3    1
    15     4     2    1
    16     3    13    1
    17     3     2    1
    18    13    32    1
    19    13    33    1
    20    42     1    1
    21     9     1    1
    22     9    16    1
    23     9     6    1
    24     2     5    1
    25     2    17    1
    26    20     6    1
    27    40    16    1
    28    19     5    1
    29    39    16    1
    30    16    41    1
    31     6     5    1
    32     6    10    1
    33     5     8    1
    34    36    15    1
    35    37    15    1
    36    10    24    1
    37    10    25    1
    38    10    14    1
    39     8    15    1
    40     8    23    1
    41     8    14    1
    42    15    38    1
    43    35    14    1
    44    14    34    1
@<TRIPOS>MOLECULE
11996452_8_run_14.pdb
 42 44 0 0 0
SMALL
GASTEIGER

@<TRIPOS>ATOM
      1    O      -67.0390  -88.0260   -6.6280 O.3     2  LIG2       -0.3886
      2    C      -70.3640  -88.8450   -9.5340 C.3     2  LIG2       -0.0289
      3    C      -70.8110  -90.1090  -10.2600 C.3     2  LIG2       -0.0284
      4    C      -69.3460  -89.9170   -9.9490 C.3     2  LIG2       -0.0319
      5    C      -70.6260  -88.5910   -8.0210 C.3     2  LIG2       -0.0294
      6    C      -69.4060  -88.3050   -7.0780 C.3     2  LIG2       -0.0090
      7    C      -68.5870  -90.6550   -8.8330 C.3     2  LIG2       -0.0468
      8    C      -71.6320  -87.4390   -7.7920 C.3     2  LIG2       -0.0404
      9    C      -67.9500  -88.3600   -7.6670 C.3     2  LIG2        0.0664
     10    C      -69.7770  -87.0160   -6.3120 C.3     2  LIG2       -0.0471
     11    C      -67.5190  -89.7890   -8.1350 C.3     2  LIG2       -0.0237
     12    C      -71.6350  -91.2120   -9.5550 C.3     2  LIG2       -0.0593
     13    C      -71.2380  -89.9350  -11.7290 C.3     2  LIG2       -0.0593
     14    C      -71.2970  -86.8970   -6.4020 C.3     2  LIG2       -0.0498
     15    C      -73.1010  -87.8650   -7.9560 C.3     2  LIG2       -0.0621
     16    C      -67.6350  -87.2980   -8.7560 C.3     2  LIG2       -0.0358
     17    H      -70.3490  -87.9180  -10.1070 H       2  LIG2        0.0312
     18    H      -68.6950  -89.7140  -10.8010 H       2  LIG2        0.0309
     19    H      -71.0890  -89.4820   -7.6010 H       2  LIG2        0.0310
     20    H      -69.4230  -89.0920   -6.3190 H       2  LIG2        0.0331
     21    H      -69.2670  -91.0310   -8.0700 H       2  LIG2        0.0269
     22    H      -68.1090  -91.5410   -9.2550 H       2  LIG2        0.0269
     23    H      -71.4310  -86.6340   -8.5030 H       2  LIG2        0.0301
     24    H      -69.4500  -87.0530   -5.2720 H       2  LIG2        0.0269
     25    H      -69.3130  -86.1370   -6.7570 H       2  LIG2        0.0269
     26    H      -67.1820  -90.3750   -7.2760 H       2  LIG2        0.0293
     27    H      -66.6490  -89.7160   -8.7910 H       2  LIG2        0.0293
     28    H      -71.5420  -92.1590  -10.0870 H       2  LIG2        0.0235
     29    H      -72.6920  -90.9470   -9.5380 H       2  LIG2        0.0235
     30    H      -71.3430  -91.4070   -8.5270 H       2  LIG2        0.0235
     31    H      -71.1090  -90.8620  -12.2890 H       2  LIG2        0.0235
     32    H      -70.6550  -89.1660  -12.2380 H       2  LIG2        0.0235
     33    H      -72.2870  -89.6450  -11.7990 H       2  LIG2        0.0235
     34    H      -71.6260  -85.8660   -6.2710 H       2  LIG2        0.0268
     35    H      -71.7740  -87.4960   -5.6240 H       2  LIG2        0.0268
     36    H      -73.3720  -88.6570   -7.2580 H       2  LIG2        0.0233
     37    H      -73.2910  -88.2330   -8.9650 H       2  LIG2        0.0233
     38    H      -73.7740  -87.0250   -7.7820 H       2  LIG2        0.0233
     39    H      -68.1740  -87.4600   -9.6840 H       2  LIG2        0.0257
     40    H      -66.5770  -87.3030   -9.0240 H       2  LIG2        0.0257
     41    H      -67.8650  -86.2840   -8.4280 H       2  LIG2        0.0257
     42    H      -66.1460  -88.1570   -6.9570 H       2  LIG2        0.2102
@<TRIPOS>BOND
     1    31    13    1
     2    32    13    1
     3    33    13    1
     4    13     3    1
     5    18     4    1
     6     3     4    1
     7     3    12    1
     8     3     2    1
     9    17     2    1
    10    28    12    1
    11     4     2    1
    12     4     7    1
    13    39    16    1
    14    12    29    1
    15    12    30    1
    16     2     5    1
    17    22     7    1
    18    40    16    1
    19    37    15    1
    20     7    11    1
    21     7    21    1
    22    27    11    1
    23    16    41    1
    24    16     9    1
    25    23     8    1
    26    11     9    1
    27    11    26    1
    28     5     8    1
    29     5    19    1
    30     5     6    1
    31    15     8    1
    32    15    38    1
    33    15    36    1
    34     8    14    1
    35     9     6    1
    36     9     1    1
    37     6    20    1
    38     6    10    1
    39    42     1    1
    40    25    10    1
    41    14    10    1
    42    14    34    1
    43    14    35    1
    44    10    24    1
@<TRIPOS>MOLECULE
11996452_8_run_4.pdb
 42 44 0 0 0
SMALL
GASTEIGER

@<TRIPOS>ATOM
      1    O      -66.8660  -91.0870   -6.7700 O.3     2  LIG2       -0.3886
      2    C      -70.3130  -88.2150   -6.5730 C.3     2  LIG2       -0.0289
      3    C      -70.8260  -87.2940   -5.4710 C.3     2  LIG2       -0.0284
      4    C      -70.1740  -88.6020   -5.0930 C.3     2  LIG2       -0.0319
      5    C      -69.0320  -87.9200   -7.4060 C.3     2  LIG2       -0.0294
      6    C      -67.8780  -88.9820   -7.4240 C.3     2  LIG2       -0.0090
      7    C      -68.7530  -88.7340   -4.5180 C.3     2  LIG2       -0.0468
      8    C      -69.3600  -87.6070   -8.8840 C.3     2  LIG2       -0.0404
      9    C      -68.0110  -90.2780   -6.5440 C.3     2  LIG2        0.0664
     10    C      -67.5600  -89.2110   -8.9190 C.3     2  LIG2       -0.0471
     11    C      -68.0030  -89.9910   -5.0070 C.3     2  LIG2       -0.0237
     12    C      -70.1450  -85.9430   -5.1480 C.3     2  LIG2       -0.0593
     13    C      -72.3550  -87.2090   -5.3130 C.3     2  LIG2       -0.0593
     14    C      -68.0930  -87.9830   -9.6540 C.3     2  LIG2       -0.0498
     15    C      -69.8230  -86.1590   -9.1180 C.3     2  LIG2       -0.0621
     16    C      -69.1830  -91.2220   -6.9280 C.3     2  LIG2       -0.0358
     17    H      -71.0550  -88.7670   -7.1490 H       2  LIG2        0.0312
     18    H      -70.8350  -89.3720   -4.6930 H       2  LIG2        0.0309
     19    H      -68.5640  -87.0220   -7.0050 H       2  LIG2        0.0310
     20    H      -66.9950  -88.4740   -7.0290 H       2  LIG2        0.0331
     21    H      -68.1440  -87.8650   -4.7570 H       2  LIG2        0.0269
     22    H      -68.8120  -88.7540   -3.4290 H       2  LIG2        0.0269
     23    H      -70.1510  -88.2760   -9.2300 H       2  LIG2        0.0301
     24    H      -66.4910  -89.3360   -9.0920 H       2  LIG2        0.0269
     25    H      -68.0480  -90.1070   -9.3000 H       2  LIG2        0.0269
     26    H      -66.9740  -89.8720   -4.6570 H       2  LIG2        0.0293
     27    H      -68.3910  -90.8580   -4.4670 H       2  LIG2        0.0293
     28    H      -70.4000  -85.6180   -4.1390 H       2  LIG2        0.0235
     29    H      -70.4830  -85.1700   -5.8380 H       2  LIG2        0.0235
     30    H      -69.0600  -85.9600   -5.2010 H       2  LIG2        0.0235
     31    H      -72.6300  -86.9280   -4.2950 H       2  LIG2        0.0235
     32    H      -72.8450  -88.1600   -5.5290 H       2  LIG2        0.0235
     33    H      -72.7770  -86.4670   -5.9910 H       2  LIG2        0.0235
     34    H      -68.2980  -88.2010  -10.7020 H       2  LIG2        0.0268
     35    H      -67.3620  -87.1720   -9.6220 H       2  LIG2        0.0268
     36    H      -69.0650  -85.4380   -8.8080 H       2  LIG2        0.0233
     37    H      -70.7330  -85.9440   -8.5560 H       2  LIG2        0.0233
     38    H      -70.0390  -85.9810  -10.1720 H       2  LIG2        0.0233
     39    H      -70.1620  -90.8010   -6.7190 H       2  LIG2        0.0257
     40    H      -69.1390  -92.1590   -6.3710 H       2  LIG2        0.0257
     41    H      -69.1720  -91.4900   -7.9850 H       2  LIG2        0.0257
     42    H      -66.0950  -90.6150   -6.4480 H       2  LIG2        0.2102
@<TRIPOS>BOND
     1    34    14    1
     2    38    15    1
     3    14    35    1
     4    14    10    1
     5    14     8    1
     6    25    10    1
     7    23     8    1
     8    15     8    1
     9    15    36    1
    10    15    37    1
    11    24    10    1
    12    10     6    1
    13     8     5    1
    14    41    16    1
    15     6     5    1
    16     6    20    1
    17     6     9    1
    18     5    19    1
    19     5     2    1
    20    17     2    1
    21    16    39    1
    22    16     9    1
    23    16    40    1
    24     1     9    1
    25     1    42    1
    26     2     3    1
    27     2     4    1
    28     9    11    1
    29    33    13    1
    30    29    12    1
    31    32    13    1
    32     3    13    1
    33     3    12    1
    34     3     4    1
    35    13    31    1
    36    30    12    1
    37    12    28    1
    38     4    18    1
    39     4     7    1
    40    11    26    1
    41    11     7    1
    42    11    27    1
    43    21     7    1
    44     7    22    1
@<TRIPOS>MOLECULE
11996452_8_run_14.pdb
 42 44 0 0 0
SMALL
GASTEIGER

@<TRIPOS>ATOM
      1    O      -61.6010  -70.7180  -11.3260 O.3     2  LIG2       -0.3886
      2    C      -59.8920  -72.4190   -7.5370 C.3     2  LIG2       -0.0289
      3    C      -58.5100  -72.3330   -6.8990 C.3     2  LIG2       -0.0284
      4    C      -58.6290  -72.3170   -8.4040 C.3     2  LIG2       -0.0319
      5    C      -60.9090  -71.2410   -7.5340 C.3     2  LIG2       -0.0294
      6    C      -61.4610  -70.7130   -8.9040 C.3     2  LIG2       -0.0090
      7    C      -58.4600  -71.0640   -9.2800 C.3     2  LIG2       -0.0468
      8    C      -62.1450  -71.5440   -6.6550 C.3     2  LIG2       -0.0404
      9    C      -60.9170  -71.3330  -10.2430 C.3     2  LIG2        0.0664
     10    C      -62.9980  -70.6960   -8.7440 C.3     2  LIG2       -0.0471
     11    C      -59.4040  -71.0310  -10.5000 C.3     2  LIG2       -0.0237
     12    C      -58.0400  -71.0780   -6.1260 C.3     2  LIG2       -0.0593
     13    C      -57.9750  -73.6260   -6.2580 C.3     2  LIG2       -0.0593
     14    C      -63.2630  -70.6800   -7.2400 C.3     2  LIG2       -0.0498
     15    C      -61.9010  -71.3120   -5.1530 C.3     2  LIG2       -0.0621
     16    C      -61.2280  -72.8400  -10.4500 C.3     2  LIG2       -0.0358
     17    H      -60.3910  -73.3880   -7.5210 H       2  LIG2        0.0312
     18    H      -58.2820  -73.2120   -8.9240 H       2  LIG2        0.0309
     19    H      -60.4270  -70.3750   -7.0860 H       2  LIG2        0.0310
     20    H      -61.1780  -69.6590   -8.9560 H       2  LIG2        0.0331
     21    H      -58.6190  -70.1530   -8.7060 H       2  LIG2        0.0269
     22    H      -57.4270  -71.0100   -9.6260 H       2  LIG2        0.0269
     23    H      -62.4430  -72.5860   -6.7930 H       2  LIG2        0.0301
     24    H      -63.4470  -69.8290   -9.2280 H       2  LIG2        0.0269
     25    H      -63.4580  -71.5780   -9.1880 H       2  LIG2        0.0269
     26    H      -59.2930  -70.0320  -10.9290 H       2  LIG2        0.0293
     27    H      -59.0150  -71.7140  -11.2580 H       2  LIG2        0.0293
     28    H      -56.9520  -71.0460   -6.0720 H       2  LIG2        0.0235
     29    H      -58.4200  -71.0940   -5.1050 H       2  LIG2        0.0235
     30    H      -58.3530  -70.1340   -6.5640 H       2  LIG2        0.0235
     31    H      -56.8840  -73.6320   -6.2360 H       2  LIG2        0.0235
     32    H      -58.2920  -74.5170   -6.8010 H       2  LIG2        0.0235
     33    H      -58.3310  -73.7290   -5.2320 H       2  LIG2        0.0235
     34    H      -64.2530  -71.0720   -7.0040 H       2  LIG2        0.0268
     35    H      -63.2110  -69.6600   -6.8540 H       2  LIG2        0.0268
     36    H      -61.6160  -70.2800   -4.9450 H       2  LIG2        0.0233
     37    H      -61.1040  -71.9570   -4.7830 H       2  LIG2        0.0233
     38    H      -62.7970  -71.5330   -4.5720 H       2  LIG2        0.0233
     39    H      -60.6940  -73.4890   -9.7610 H       2  LIG2        0.0257
     40    H      -60.9420  -73.1720  -11.4490 H       2  LIG2        0.0257
     41    H      -62.2890  -73.0650  -10.3410 H       2  LIG2        0.0257
     42    H      -61.3010  -71.1260  -12.1410 H       2  LIG2        0.2102
@<TRIPOS>BOND
     1    42     1    1
     2    40    16    1
     3     1     9    1
     4    27    11    1
     5    26    11    1
     6    11     9    1
     7    11     7    1
     8    16    41    1
     9    16     9    1
    10    16    39    1
    11     9     6    1
    12    22     7    1
    13     7    21    1
    14     7     4    1
    15    24    10    1
    16    25    10    1
    17    20     6    1
    18    18     4    1
    19     6    10    1
    20     6     5    1
    21    10    14    1
    22     4     2    1
    23     4     3    1
    24     2     5    1
    25     2    17    1
    26     2     3    1
    27     5    19    1
    28     5     8    1
    29    14    34    1
    30    14    35    1
    31    14     8    1
    32     3    13    1
    33     3    12    1
    34    32    13    1
    35    23     8    1
    36     8    15    1
    37    30    12    1
    38    13    31    1
    39    13    33    1
    40    12    28    1
    41    12    29    1
    42    15    36    1
    43    15    37    1
    44    15    38    1
@<TRIPOS>MOLECULE
11996452_8_run_7.pdb
 42 44 0 0 0
SMALL
GASTEIGER

@<TRIPOS>ATOM
      1    O      -71.9370  -87.6510  -10.1790 O.3     2  LIG2       -0.3886
      2    C      -68.5090  -88.6620   -7.4600 C.3     2  LIG2       -0.0289
      3    C      -68.4340  -88.9910   -5.9730 C.3     2  LIG2       -0.0284
      4    C      -69.4920  -88.0330   -6.4630 C.3     2  LIG2       -0.0319
      5    C      -69.0430  -89.6590   -8.5290 C.3     2  LIG2       -0.0294
      6    C      -70.2400  -89.2210   -9.4420 C.3     2  LIG2       -0.0090
      7    C      -70.9840  -88.3810   -6.6120 C.3     2  LIG2       -0.0468
      8    C      -67.9250  -90.1430   -9.4810 C.3     2  LIG2       -0.0404
      9    C      -70.9180  -87.8220   -9.2040 C.3     2  LIG2        0.0664
     10    C      -69.7760  -89.5080  -10.8880 C.3     2  LIG2       -0.0471
     11    C      -71.6560  -87.7130   -7.8290 C.3     2  LIG2       -0.0237
     12    C      -68.8170  -90.3840   -5.4200 C.3     2  LIG2       -0.0593
     13    C      -67.2500  -88.3820   -5.2000 C.3     2  LIG2       -0.0593
     14    C      -68.6490  -90.5320  -10.7710 C.3     2  LIG2       -0.0498
     15    C      -67.0600  -91.2700   -8.8890 C.3     2  LIG2       -0.0621
     16    C      -70.0010  -86.5920   -9.4430 C.3     2  LIG2       -0.0358
     17    H      -67.7420  -88.0020   -7.8650 H       2  LIG2        0.0312
     18    H      -69.3570  -86.9840   -6.1910 H       2  LIG2        0.0309
     19    H      -69.4060  -90.5470   -8.0160 H       2  LIG2        0.0310
     20    H      -71.0380  -89.9450   -9.2600 H       2  LIG2        0.0331
     21    H      -71.1360  -89.4550   -6.6900 H       2  LIG2        0.0269
     22    H      -71.5090  -88.0810   -5.7040 H       2  LIG2        0.0269
     23    H      -67.2670  -89.3060   -9.7260 H       2  LIG2        0.0301
     24    H      -70.5880  -89.8910  -11.5060 H       2  LIG2        0.0269
     25    H      -69.4050  -88.6080  -11.3770 H       2  LIG2        0.0269
     26    H      -72.6470  -88.1690   -7.9020 H       2  LIG2        0.0293
     27    H      -71.8400  -86.6630   -7.5910 H       2  LIG2        0.0293
     28    H      -69.0550  -90.3230   -4.3580 H       2  LIG2        0.0235
     29    H      -67.9870  -91.0810   -5.5320 H       2  LIG2        0.0235
     30    H      -69.6780  -90.8400   -5.9020 H       2  LIG2        0.0235
     31    H      -67.4870  -88.2710   -4.1410 H       2  LIG2        0.0235
     32    H      -66.9780  -87.3940   -5.5760 H       2  LIG2        0.0235
     33    H      -66.3640  -89.0140   -5.2810 H       2  LIG2        0.0235
     34    H      -67.9890  -90.5020  -11.6390 H       2  LIG2        0.0268
     35    H      -69.0560  -91.5420  -10.7000 H       2  LIG2        0.0268
     36    H      -67.6570  -92.1480   -8.6390 H       2  LIG2        0.0233
     37    H      -66.5580  -90.9410   -7.9790 H       2  LIG2        0.0233
     38    H      -66.2890  -91.5830   -9.5940 H       2  LIG2        0.0233
     39    H      -69.2060  -86.4970   -8.7080 H       2  LIG2        0.0257
     40    H      -70.5640  -85.6590   -9.3910 H       2  LIG2        0.0257
     41    H      -69.5250  -86.6120  -10.4240 H       2  LIG2        0.0257
     42    H      -71.5200  -87.4290  -11.0150 H       2  LIG2        0.2102
@<TRIPOS>BOND
     1    34    14    1
     2    24    10    1
     3    25    10    1
     4    42     1    1
     5    10    14    1
     6    10     6    1
     7    14    35    1
     8    14     8    1
     9    41    16    1
    10     1     9    1
    11    23     8    1
    12    38    15    1
    13     8    15    1
    14     8     5    1
    15    16    40    1
    16    16     9    1
    17    16    39    1
    18     6    20    1
    19     6     9    1
    20     6     5    1
    21     9    11    1
    22    15    36    1
    23    15    37    1
    24     5    19    1
    25     5     2    1
    26    26    11    1
    27    17     2    1
    28    11    27    1
    29    11     7    1
    30     2     4    1
    31     2     3    1
    32    21     7    1
    33     7     4    1
    34     7    22    1
    35     4    18    1
    36     4     3    1
    37     3    12    1
    38     3    13    1
    39    30    12    1
    40    32    13    1
    41    29    12    1
    42    12    28    1
    43    33    13    1
    44    13    31    1
@<TRIPOS>MOLECULE
11996452_8_run_2.pdb
 42 44 0 0 0
SMALL
GASTEIGER

@<TRIPOS>ATOM
      1    O      -66.5390  -87.4090   -5.9290 O.3     2  LIG2       -0.3886
      2    C      -70.6280  -89.1480   -6.5810 C.3     2  LIG2       -0.0289
      3    C      -71.9810  -88.8700   -5.9370 C.3     2  LIG2       -0.0284
      4    C      -70.7280  -88.7170   -5.1100 C.3     2  LIG2       -0.0319
      5    C      -69.9580  -88.1920   -7.6100 C.3     2  LIG2       -0.0294
      6    C      -68.5240  -87.6360   -7.3050 C.3     2  LIG2       -0.0090
      7    C      -70.1010  -87.3690   -4.7150 C.3     2  LIG2       -0.0468
      8    C      -69.8920  -88.8140   -9.0230 C.3     2  LIG2       -0.0404
      9    C      -67.8330  -87.9950   -5.9390 C.3     2  LIG2        0.0664
     10    C      -67.6950  -87.9270   -8.5770 C.3     2  LIG2       -0.0471
     11    C      -68.5590  -87.3860   -4.6950 C.3     2  LIG2       -0.0237
     12    C      -72.8350  -87.6380   -6.3210 C.3     2  LIG2       -0.0593
     13    C      -72.8620  -90.0990   -5.6440 C.3     2  LIG2       -0.0593
     14    C      -68.7090  -88.1210   -9.7020 C.3     2  LIG2       -0.0498
     15    C      -71.2120  -88.7020   -9.8060 C.3     2  LIG2       -0.0621
     16    C      -67.5310  -89.5030   -5.7260 C.3     2  LIG2       -0.0358
     17    H      -70.3650  -90.1900   -6.7620 H       2  LIG2        0.0312
     18    H      -70.5670  -89.4700   -4.3360 H       2  LIG2        0.0309
     19    H      -70.5780  -87.3020   -7.7020 H       2  LIG2        0.0310
     20    H      -68.6210  -86.5470   -7.2830 H       2  LIG2        0.0331
     21    H      -70.4210  -86.5710   -5.3820 H       2  LIG2        0.0269
     22    H      -70.4690  -87.0840   -3.7280 H       2  LIG2        0.0269
     23    H      -69.6360  -89.8740   -8.9430 H       2  LIG2        0.0301
     24    H      -67.0070  -87.1140   -8.8090 H       2  LIG2        0.0269
     25    H      -67.0930  -88.8280   -8.4660 H       2  LIG2        0.0269
     26    H      -68.2570  -86.3440   -4.5610 H       2  LIG2        0.0293
     27    H      -68.2300  -87.8980   -3.7880 H       2  LIG2        0.0293
     28    H      -73.5510  -87.4070   -5.5320 H       2  LIG2        0.0235
     29    H      -73.4010  -87.8340   -7.2320 H       2  LIG2        0.0235
     30    H      -72.2640  -86.7290   -6.4950 H       2  LIG2        0.0235
     31    H      -73.5550  -89.9000   -4.8260 H       2  LIG2        0.0235
     32    H      -72.2700  -90.9710   -5.3630 H       2  LIG2        0.0235
     33    H      -73.4490  -90.3760   -6.5210 H       2  LIG2        0.0235
     34    H      -68.2950  -88.7170  -10.5160 H       2  LIG2        0.0268
     35    H      -69.0090  -87.1570  -10.1170 H       2  LIG2        0.0268
     36    H      -71.5160  -87.6630   -9.9380 H       2  LIG2        0.0233
     37    H      -72.0200  -89.2200   -9.2870 H       2  LIG2        0.0233
     38    H      -71.1200  -89.1490  -10.7960 H       2  LIG2        0.0233
     39    H      -68.4250  -90.1080   -5.6020 H       2  LIG2        0.0257
     40    H      -66.9370  -89.6670   -4.8260 H       2  LIG2        0.0257
     41    H      -66.9670  -89.9360   -6.5520 H       2  LIG2        0.0257
     42    H      -66.0010  -87.8540   -6.5880 H       2  LIG2        0.2102
@<TRIPOS>BOND
     1    38    15    1
     2    34    14    1
     3    35    14    1
     4    36    15    1
     5    15    37    1
     6    15     8    1
     7    14     8    1
     8    14    10    1
     9     8    23    1
    10     8     5    1
    11    24    10    1
    12    10    25    1
    13    10     6    1
    14    19     5    1
    15     5     6    1
    16     5     2    1
    17     6    20    1
    18     6     9    1
    19    29    12    1
    20    17     2    1
    21    42     1    1
    22     2     3    1
    23     2     4    1
    24    41    16    1
    25    33    13    1
    26    30    12    1
    27    12     3    1
    28    12    28    1
    29     9     1    1
    30     9    16    1
    31     9    11    1
    32     3    13    1
    33     3     4    1
    34    16    39    1
    35    16    40    1
    36    13    32    1
    37    13    31    1
    38    21     7    1
    39     4     7    1
    40     4    18    1
    41     7    11    1
    42     7    22    1
    43    11    26    1
    44    11    27    1
