@<TRIPOS>MOLECULE
11996452_9_run_11.pdb
 42 44 0 0 0
SMALL
GASTEIGER

@<TRIPOS>ATOM
      1    O      -61.5960  -79.5190  -16.1790 O.3     2  LIG2       -0.3886
      2    C      -62.1440  -82.4680  -16.3000 C.3     2  LIG2       -0.0289
      3    C      -63.2970  -83.2730  -16.9160 C.3     2  LIG2       -0.0284
      4    C      -63.4530  -81.7810  -16.7000 C.3     2  LIG2       -0.0319
      5    C      -61.6530  -82.3810  -14.8130 C.3     2  LIG2       -0.0294
      6    C      -61.3640  -80.9460  -14.2580 C.3     2  LIG2       -0.0090
      7    C      -64.2770  -81.1240  -15.5710 C.3     2  LIG2       -0.0468
      8    C      -62.3360  -83.1930  -13.6730 C.3     2  LIG2       -0.0404
      9    C      -62.1190  -79.7050  -14.8710 C.3     2  LIG2        0.0664
     10    C      -61.4570  -81.1160  -12.7270 C.3     2  LIG2       -0.0471
     11    C      -63.6700  -79.8200  -15.0050 C.3     2  LIG2       -0.0237
     12    C      -63.0640  -83.7400  -18.3680 C.3     2  LIG2       -0.0593
     13    C      -64.2250  -84.2560  -16.1630 C.3     2  LIG2       -0.0593
     14    C      -62.4670  -82.2300  -12.4840 C.3     2  LIG2       -0.0498
     15    C      -61.6100  -84.5070  -13.3200 C.3     2  LIG2       -0.0621
     16    C      -61.7690  -78.3760  -14.1560 C.3     2  LIG2       -0.0358
     17    H      -61.2990  -82.2660  -16.9610 H       2  LIG2        0.0312
     18    H      -63.4630  -81.1660  -17.6000 H       2  LIG2        0.0309
     19    H      -60.6570  -82.8230  -14.8850 H       2  LIG2        0.0310
     20    H      -60.3060  -80.7480  -14.4540 H       2  LIG2        0.0331
     21    H      -65.2790  -80.9130  -15.9490 H       2  LIG2        0.0269
     22    H      -64.4380  -81.7990  -14.7390 H       2  LIG2        0.0269
     23    H      -63.3470  -83.4670  -13.9220 H       2  LIG2        0.0301
     24    H      -60.4830  -81.4090  -12.3280 H       2  LIG2        0.0269
     25    H      -61.7490  -80.2140  -12.1940 H       2  LIG2        0.0269
     26    H      -64.0380  -78.9810  -15.6000 H       2  LIG2        0.0293
     27    H      -64.1100  -79.6740  -14.0180 H       2  LIG2        0.0293
     28    H      -64.0080  -83.8510  -18.9030 H       2  LIG2        0.0235
     29    H      -62.5500  -84.6990  -18.3900 H       2  LIG2        0.0235
     30    H      -62.4570  -83.0330  -18.9360 H       2  LIG2        0.0235
     31    H      -64.9870  -84.6540  -16.8340 H       2  LIG2        0.0235
     32    H      -64.7880  -83.8230  -15.3430 H       2  LIG2        0.0235
     33    H      -63.6610  -85.1090  -15.7840 H       2  LIG2        0.0235
     34    H      -63.4760  -81.8150  -12.4420 H       2  LIG2        0.0268
     35    H      -62.2890  -82.7180  -11.5240 H       2  LIG2        0.0268
     36    H      -60.5960  -84.3200  -12.9660 H       2  LIG2        0.0233
     37    H      -61.5450  -85.1620  -14.1890 H       2  LIG2        0.0233
     38    H      -62.1390  -85.0510  -12.5380 H       2  LIG2        0.0233
     39    H      -62.2350  -78.3050  -13.1740 H       2  LIG2        0.0257
     40    H      -62.1140  -77.5080  -14.7200 H       2  LIG2        0.0257
     41    H      -60.6920  -78.2630  -14.0190 H       2  LIG2        0.0257
     42    H      -60.7470  -79.0790  -16.1080 H       2  LIG2        0.2102
@<TRIPOS>BOND
     1    30    12    1
     2    28    12    1
     3    29    12    1
     4    12     3    1
     5    18     4    1
     6    17     2    1
     7     3     4    1
     8     3     2    1
     9     3    13    1
    10    31    13    1
    11     4     2    1
    12     4     7    1
    13     2     5    1
    14     1    42    1
    15     1     9    1
    16    13    33    1
    17    13    32    1
    18    21     7    1
    19    26    11    1
    20     7    11    1
    21     7    22    1
    22    11     9    1
    23    11    27    1
    24    19     5    1
    25     9     6    1
    26     9    16    1
    27     5     6    1
    28     5     8    1
    29    40    16    1
    30    20     6    1
    31     6    10    1
    32    37    15    1
    33    16    41    1
    34    16    39    1
    35    23     8    1
    36     8    15    1
    37     8    14    1
    38    15    36    1
    39    15    38    1
    40    10    14    1
    41    10    24    1
    42    10    25    1
    43    14    34    1
    44    14    35    1
@<TRIPOS>MOLECULE
11996452_9_run_23.pdb
 42 44 0 0 0
SMALL
GASTEIGER

@<TRIPOS>ATOM
      1    O      -64.2890  -79.3910  -15.6790 O.3     2  LIG2       -0.3886
      2    C      -62.6110  -78.3950  -13.3990 C.3     2  LIG2       -0.0289
      3    C      -61.2790  -77.6320  -13.3610 C.3     2  LIG2       -0.0284
      4    C      -61.7220  -78.3110  -14.6410 C.3     2  LIG2       -0.0319
      5    C      -62.9890  -79.8000  -12.8160 C.3     2  LIG2       -0.0294
      6    C      -63.7910  -80.7540  -13.7630 C.3     2  LIG2       -0.0090
      7    C      -61.1530  -79.6380  -15.1910 C.3     2  LIG2       -0.0468
      8    C      -61.9580  -80.6720  -12.0390 C.3     2  LIG2       -0.0404
      9    C      -63.6440  -80.6070  -15.3260 C.3     2  LIG2        0.0664
     10    C      -63.5280  -82.1590  -13.1810 C.3     2  LIG2       -0.0471
     11    C      -62.1920  -80.5420  -15.8940 C.3     2  LIG2       -0.0237
     12    C      -61.4070  -76.0960  -13.3140 C.3     2  LIG2       -0.0593
     13    C      -59.9830  -78.1000  -12.6560 C.3     2  LIG2       -0.0593
     14    C      -62.1410  -82.1070  -12.5530 C.3     2  LIG2       -0.0498
     15    C      -62.0670  -80.5530  -10.5060 C.3     2  LIG2       -0.0621
     16    C      -64.4480  -81.6760  -16.1080 C.3     2  LIG2       -0.0358
     17    H      -63.5110  -77.7770  -13.4360 H       2  LIG2        0.0312
     18    H      -62.0230  -77.6500  -15.4540 H       2  LIG2        0.0309
     19    H      -63.7260  -79.5320  -12.0550 H       2  LIG2        0.0310
     20    H      -64.8500  -80.5640  -13.5670 H       2  LIG2        0.0331
     21    H      -60.3500  -79.4090  -15.8940 H       2  LIG2        0.0269
     22    H      -60.6750  -80.2270  -14.4170 H       2  LIG2        0.0269
     23    H      -60.9430  -80.4140  -12.2880 H       2  LIG2        0.0301
     24    H      -64.2710  -82.3850  -12.4120 H       2  LIG2        0.0269
     25    H      -63.5860  -82.9640  -13.9100 H       2  LIG2        0.0269
     26    H      -62.2350  -80.2620  -16.9490 H       2  LIG2        0.0293
     27    H      -61.7780  -81.5510  -15.8920 H       2  LIG2        0.0293
     28    H      -60.5390  -75.6130  -13.7640 H       2  LIG2        0.0235
     29    H      -61.4920  -75.7440  -12.2870 H       2  LIG2        0.0235
     30    H      -62.2860  -75.7380  -13.8530 H       2  LIG2        0.0235
     31    H      -59.1750  -77.3870  -12.8290 H       2  LIG2        0.0235
     32    H      -59.5850  -79.0470  -13.0020 H       2  LIG2        0.0235
     33    H      -60.1280  -78.1580  -11.5770 H       2  LIG2        0.0235
     34    H      -61.3840  -82.3400  -13.3050 H       2  LIG2        0.0268
     35    H      -62.0390  -82.8550  -11.7650 H       2  LIG2        0.0268
     36    H      -63.0430  -80.8830  -10.1480 H       2  LIG2        0.0233
     37    H      -61.9240  -79.5210  -10.1840 H       2  LIG2        0.0233
     38    H      -61.3090  -81.1590  -10.0090 H       2  LIG2        0.0233
     39    H      -63.9810  -82.6590  -16.0540 H       2  LIG2        0.0257
     40    H      -64.5210  -81.4330  -17.1690 H       2  LIG2        0.0257
     41    H      -65.4660  -81.7730  -15.7280 H       2  LIG2        0.0257
     42    H      -64.4360  -79.3890  -16.6270 H       2  LIG2        0.2102
@<TRIPOS>BOND
     1    40    16    1
     2    26    11    1
     3    42     1    1
     4    16    39    1
     5    16    41    1
     6    16     9    1
     7    11    27    1
     8    11     9    1
     9    11     7    1
    10    21     7    1
    11     1     9    1
    12    18     4    1
    13     9     6    1
    14     7     4    1
    15     7    22    1
    16     4     2    1
    17     4     3    1
    18    25    10    1
    19    30    12    1
    20    28    12    1
    21     6    20    1
    22     6    10    1
    23     6     5    1
    24    17     2    1
    25     2     3    1
    26     2     5    1
    27     3    12    1
    28     3    13    1
    29    12    29    1
    30    34    14    1
    31    10    14    1
    32    10    24    1
    33    32    13    1
    34    31    13    1
    35     5    19    1
    36     5     8    1
    37    13    33    1
    38    14     8    1
    39    14    35    1
    40    23     8    1
    41     8    15    1
    42    15    37    1
    43    15    36    1
    44    15    38    1
@<TRIPOS>MOLECULE
11996452_9_run_11.pdb
 42 44 0 0 0
SMALL
GASTEIGER

@<TRIPOS>ATOM
      1    O      -63.2100  -82.3670  -18.7200 O.3     2  LIG2       -0.3886
      2    C      -63.5260  -81.3690  -15.9070 C.3     2  LIG2       -0.0289
      3    C      -62.5190  -80.7860  -14.9050 C.3     2  LIG2       -0.0284
      4    C      -62.0200  -81.5290  -16.1280 C.3     2  LIG2       -0.0319
      5    C      -64.4290  -82.6460  -15.8060 C.3     2  LIG2       -0.0294
      6    C      -64.4580  -83.5800  -17.0610 C.3     2  LIG2       -0.0090
      7    C      -61.4570  -82.9670  -16.1310 C.3     2  LIG2       -0.0468
      8    C      -64.4210  -83.5600  -14.5450 C.3     2  LIG2       -0.0404
      9    C      -63.2200  -83.6130  -18.0390 C.3     2  LIG2        0.0664
     10    C      -64.9230  -84.9400  -16.5000 C.3     2  LIG2       -0.0471
     11    C      -61.8140  -83.7950  -17.3870 C.3     2  LIG2       -0.0237
     12    C      -62.3890  -79.2490  -14.9300 C.3     2  LIG2       -0.0593
     13    C      -62.2130  -81.3420  -13.4940 C.3     2  LIG2       -0.0593
     14    C      -64.4140  -85.0050  -15.0660 C.3     2  LIG2       -0.0498
     15    C      -65.5680  -83.2720  -13.5560 C.3     2  LIG2       -0.0621
     16    C      -63.3860  -84.6430  -19.1840 C.3     2  LIG2       -0.0358
     17    H      -64.0120  -80.6470  -16.5660 H       2  LIG2        0.0312
     18    H      -61.5390  -80.9200  -16.8950 H       2  LIG2        0.0309
     19    H      -65.4300  -82.2090  -15.8020 H       2  LIG2        0.0310
     20    H      -65.2890  -83.2350  -17.6830 H       2  LIG2        0.0331
     21    H      -60.3710  -82.9170  -16.0370 H       2  LIG2        0.0269
     22    H      -61.7790  -83.5310  -15.2640 H       2  LIG2        0.0269
     23    H      -63.5090  -83.4640  -13.9810 H       2  LIG2        0.0301
     24    H      -66.0140  -84.9880  -16.5060 H       2  LIG2        0.0269
     25    H      -64.5740  -85.8010  -17.0670 H       2  LIG2        0.0269
     26    H      -61.0460  -83.6220  -18.1450 H       2  LIG2        0.0293
     27    H      -61.6970  -84.8450  -17.1110 H       2  LIG2        0.0293
     28    H      -61.3970  -78.9310  -14.6070 H       2  LIG2        0.0235
     29    H      -63.1210  -78.7860  -14.2700 H       2  LIG2        0.0235
     30    H      -62.5460  -78.8370  -15.9290 H       2  LIG2        0.0235
     31    H      -61.4220  -80.7620  -13.0170 H       2  LIG2        0.0235
     32    H      -61.8500  -82.3640  -13.4700 H       2  LIG2        0.0235
     33    H      -63.0900  -81.2710  -12.8500 H       2  LIG2        0.0235
     34    H      -63.4000  -85.4090  -15.0490 H       2  LIG2        0.0268
     35    H      -65.0290  -85.6750  -14.4620 H       2  LIG2        0.0268
     36    H      -66.5430  -83.4350  -14.0160 H       2  LIG2        0.0233
     37    H      -65.5310  -82.2400  -13.2060 H       2  LIG2        0.0233
     38    H      -65.5040  -83.9170  -12.6800 H       2  LIG2        0.0233
     39    H      -63.2670  -85.6680  -18.8320 H       2  LIG2        0.0257
     40    H      -62.6410  -84.5030  -19.9680 H       2  LIG2        0.0257
     41    H      -64.3680  -84.5690  -19.6540 H       2  LIG2        0.0257
     42    H      -63.9790  -82.3270  -19.2920 H       2  LIG2        0.2102
@<TRIPOS>BOND
     1    40    16    1
     2    41    16    1
     3    42     1    1
     4    16    39    1
     5    16     9    1
     6     1     9    1
     7    26    11    1
     8     9    11    1
     9     9     6    1
    10    20     6    1
    11    11    27    1
    12    11     7    1
    13    25    10    1
    14     6    10    1
    15     6     5    1
    16    18     4    1
    17    17     2    1
    18    24    10    1
    19    10    14    1
    20     7     4    1
    21     7    21    1
    22     7    22    1
    23     4     2    1
    24     4     3    1
    25    30    12    1
    26     2     5    1
    27     2     3    1
    28     5    19    1
    29     5     8    1
    30    14    34    1
    31    14     8    1
    32    14    35    1
    33    12     3    1
    34    12    28    1
    35    12    29    1
    36     3    13    1
    37     8    23    1
    38     8    15    1
    39    36    15    1
    40    15    37    1
    41    15    38    1
    42    13    32    1
    43    13    31    1
    44    13    33    1
@<TRIPOS>MOLECULE
11996452_9_run_13.pdb
 42 44 0 0 0
SMALL
GASTEIGER

@<TRIPOS>ATOM
      1    O      -60.7890  -78.3660  -15.6780 O.3     2  LIG2       -0.3886
      2    C      -61.7330  -80.8430  -14.2700 C.3     2  LIG2       -0.0289
      3    C      -62.9080  -81.7940  -14.5420 C.3     2  LIG2       -0.0284
      4    C      -62.8740  -80.4310  -15.2040 C.3     2  LIG2       -0.0319
      5    C      -61.4140  -79.9650  -13.0120 C.3     2  LIG2       -0.0294
      6    C      -60.9900  -78.4830  -13.2860 C.3     2  LIG2       -0.0090
      7    C      -63.7240  -79.2120  -14.7820 C.3     2  LIG2       -0.0468
      8    C      -62.3340  -79.9620  -11.7560 C.3     2  LIG2       -0.0404
      9    C      -61.4830  -77.7600  -14.5980 C.3     2  LIG2        0.0664
     10    C      -61.2870  -77.7620  -11.9540 C.3     2  LIG2       -0.0471
     11    C      -63.0080  -77.8490  -14.9190 C.3     2  LIG2       -0.0237
     12    C      -62.5740  -83.0040  -15.4380 C.3     2  LIG2       -0.0593
     13    C      -64.0480  -82.1360  -13.5540 C.3     2  LIG2       -0.0593
     14    C      -62.4660  -78.4940  -11.3270 C.3     2  LIG2       -0.0498
     15    C      -61.8500  -80.8890  -10.6230 C.3     2  LIG2       -0.0621
     16    C      -61.0340  -76.2790  -14.6720 C.3     2  LIG2       -0.0358
     17    H      -60.7960  -81.0910  -14.7730 H       2  LIG2        0.0312
     18    H      -62.6910  -80.4250  -16.2790 H       2  LIG2        0.0309
     19    H      -60.4880  -80.4230  -12.6530 H       2  LIG2        0.0310
     20    H      -59.8990  -78.4840  -13.3660 H       2  LIG2        0.0331
     21    H      -64.6340  -79.1960  -15.3840 H       2  LIG2        0.0269
     22    H      -64.0770  -79.2960  -13.7610 H       2  LIG2        0.0269
     23    H      -63.3370  -80.2750  -11.9900 H       2  LIG2        0.0301
     24    H      -60.4180  -77.8310  -11.2950 H       2  LIG2        0.0269
     25    H      -61.5080  -76.7010  -12.0590 H       2  LIG2        0.0269
     26    H      -63.1810  -77.4680  -15.9290 H       2  LIG2        0.0293
     27    H      -63.5370  -77.1520  -14.2670 H       2  LIG2        0.0293
     28    H      -63.4540  -83.3470  -15.9830 H       2  LIG2        0.0235
     29    H      -62.2030  -83.8370  -14.8420 H       2  LIG2        0.0235
     30    H      -61.8100  -82.7700  -16.1810 H       2  LIG2        0.0235
     31    H      -64.7750  -82.8000  -14.0230 H       2  LIG2        0.0235
     32    H      -64.6370  -81.2890  -13.2170 H       2  LIG2        0.0235
     33    H      -63.6610  -82.6590  -12.6790 H       2  LIG2        0.0235
     34    H      -63.4040  -78.0740  -11.6980 H       2  LIG2        0.0268
     35    H      -62.4740  -78.3690  -10.2430 H       2  LIG2        0.0268
     36    H      -60.8680  -80.5890  -10.2540 H       2  LIG2        0.0233
     37    H      -61.7770  -81.9210  -10.9670 H       2  LIG2        0.0233
     38    H      -62.5400  -80.8730   -9.7790 H       2  LIG2        0.0233
     39    H      -61.5980  -75.6460  -13.9880 H       2  LIG2        0.0257
     40    H      -61.1840  -75.8590  -15.6680 H       2  LIG2        0.0257
     41    H      -59.9770  -76.1660  -14.4300 H       2  LIG2        0.0257
     42    H      -59.9810  -77.8730  -15.8360 H       2  LIG2        0.2102
@<TRIPOS>BOND
     1    18     4    1
     2    30    12    1
     3    28    12    1
     4    26    11    1
     5    42     1    1
     6     1     9    1
     7    40    16    1
     8    12    29    1
     9    12     3    1
    10    21     7    1
    11     4     7    1
    12     4     3    1
    13     4     2    1
    14    11     7    1
    15    11     9    1
    16    11    27    1
    17     7    22    1
    18    17     2    1
    19    16     9    1
    20    16    41    1
    21    16    39    1
    22     9     6    1
    23     3     2    1
    24     3    13    1
    25     2     5    1
    26    31    13    1
    27    13    32    1
    28    13    33    1
    29    20     6    1
    30     6     5    1
    31     6    10    1
    32     5    19    1
    33     5     8    1
    34    25    10    1
    35    23     8    1
    36    10    14    1
    37    10    24    1
    38     8    14    1
    39     8    15    1
    40    34    14    1
    41    14    35    1
    42    37    15    1
    43    15    36    1
    44    15    38    1
@<TRIPOS>MOLECULE
11996452_9_run_1.pdb
 42 44 0 0 0
SMALL
GASTEIGER

@<TRIPOS>ATOM
      1    O      -71.9740  -86.6590   -7.4240 O.3     2  LIG2       -0.3886
      2    C      -71.3580  -88.3440   -9.8300 C.3     2  LIG2       -0.0289
      3    C      -71.9040  -89.6990  -10.3020 C.3     2  LIG2       -0.0284
      4    C      -72.1390  -89.2480   -8.8740 C.3     2  LIG2       -0.0319
      5    C      -69.8950  -87.9170   -9.4620 C.3     2  LIG2       -0.0294
      6    C      -69.7210  -87.0950   -8.1410 C.3     2  LIG2       -0.0090
      7    C      -71.3880  -89.7810   -7.6350 C.3     2  LIG2       -0.0468
      8    C      -68.7010  -88.9120   -9.5520 C.3     2  LIG2       -0.0404
      9    C      -70.7700  -87.2610   -6.9740 C.3     2  LIG2        0.0664
     10    C      -68.2400  -87.3080   -7.7650 C.3     2  LIG2       -0.0471
     11    C      -71.1160  -88.7210   -6.5420 C.3     2  LIG2       -0.0237
     12    C      -73.1110  -89.6180  -11.2590 C.3     2  LIG2       -0.0593
     13    C      -71.0690  -90.9720  -10.5740 C.3     2  LIG2       -0.0593
     14    C      -67.8630  -88.6890   -8.2840 C.3     2  LIG2       -0.0498
     15    C      -67.8830  -88.7920  -10.8540 C.3     2  LIG2       -0.0621
     16    C      -70.4050  -86.4330   -5.7170 C.3     2  LIG2       -0.0358
     17    H      -71.9030  -87.4650  -10.1790 H       2  LIG2        0.0312
     18    H      -73.1650  -88.9750   -8.6210 H       2  LIG2        0.0309
     19    H      -69.6780  -87.1810  -10.2390 H       2  LIG2        0.0310
     20    H      -69.7900  -86.0410   -8.4230 H       2  LIG2        0.0331
     21    H      -71.9660  -90.5970   -7.2000 H       2  LIG2        0.0269
     22    H      -70.4380  -90.2320   -7.8980 H       2  LIG2        0.0269
     23    H      -69.0240  -89.9370   -9.4960 H       2  LIG2        0.0301
     24    H      -67.6230  -86.5500   -8.2540 H       2  LIG2        0.0269
     25    H      -68.0330  -87.2320   -6.7000 H       2  LIG2        0.0269
     26    H      -71.9720  -88.6970   -5.8640 H       2  LIG2        0.0293
     27    H      -70.2930  -89.1030   -5.9360 H       2  LIG2        0.0293
     28    H      -73.7400  -90.5060  -11.1770 H       2  LIG2        0.0235
     29    H      -72.7820  -89.5340  -12.2940 H       2  LIG2        0.0235
     30    H      -73.7480  -88.7560  -11.0500 H       2  LIG2        0.0235
     31    H      -71.7170  -91.8040  -10.8530 H       2  LIG2        0.0235
     32    H      -70.5040  -91.3440   -9.7260 H       2  LIG2        0.0235
     33    H      -70.3810  -90.8150  -11.4060 H       2  LIG2        0.0235
     34    H      -68.1030  -89.4460   -7.5350 H       2  LIG2        0.0268
     35    H      -66.7900  -88.7600   -8.4690 H       2  LIG2        0.0268
     36    H      -67.4350  -87.8020  -10.9540 H       2  LIG2        0.0233
     37    H      -68.5130  -88.9630  -11.7270 H       2  LIG2        0.0233
     38    H      -67.0770  -89.5250  -10.8820 H       2  LIG2        0.0233
     39    H      -69.5700  -86.8690   -5.1680 H       2  LIG2        0.0257
     40    H      -71.2360  -86.3780   -5.0120 H       2  LIG2        0.0257
     41    H      -70.1320  -85.4090   -5.9740 H       2  LIG2        0.0257
     42    H      -71.7890  -85.7480   -7.6600 H       2  LIG2        0.2102
@<TRIPOS>BOND
     1    29    12    1
     2    37    15    1
     3    33    13    1
     4    12    28    1
     5    12    30    1
     6    12     3    1
     7    36    15    1
     8    38    15    1
     9    15     8    1
    10    31    13    1
    11    13     3    1
    12    13    32    1
    13     3     2    1
    14     3     4    1
    15    19     5    1
    16    17     2    1
    17     2     5    1
    18     2     4    1
    19     8    23    1
    20     8     5    1
    21     8    14    1
    22     5     6    1
    23     4    18    1
    24     4     7    1
    25    35    14    1
    26    20     6    1
    27    14    10    1
    28    14    34    1
    29    24    10    1
    30     6    10    1
    31     6     9    1
    32    22     7    1
    33    10    25    1
    34    42     1    1
    35     7    21    1
    36     7    11    1
    37     1     9    1
    38     9    11    1
    39     9    16    1
    40    11    27    1
    41    11    26    1
    42    41    16    1
    43    16    39    1
    44    16    40    1
@<TRIPOS>MOLECULE
11996452_9_run_1.pdb
 42 44 0 0 0
SMALL
GASTEIGER

@<TRIPOS>ATOM
      1    O      -67.2190  -87.6500   -8.3150 O.3     2  LIG2       -0.3886
      2    C      -69.9520  -87.0030   -7.2560 C.3     2  LIG2       -0.0289
      3    C      -70.5570  -87.1020   -5.8490 C.3     2  LIG2       -0.0284
      4    C      -69.2620  -87.8230   -6.1630 C.3     2  LIG2       -0.0319
      5    C      -70.3770  -87.7060   -8.5910 C.3     2  LIG2       -0.0294
      6    C      -69.2260  -88.3400   -9.4420 C.3     2  LIG2       -0.0090
      7    C      -69.1210  -89.3420   -6.4040 C.3     2  LIG2       -0.0468
      8    C      -71.5950  -88.6740   -8.6590 C.3     2  LIG2       -0.0404
      9    C      -67.9040  -88.8220   -8.7310 C.3     2  LIG2        0.0664
     10    C      -69.9480  -89.3820  -10.3230 C.3     2  LIG2       -0.0471
     11    C      -68.0730  -89.7300   -7.4720 C.3     2  LIG2       -0.0237
     12    C      -70.4450  -85.8200   -4.9980 C.3     2  LIG2       -0.0593
     13    C      -71.8100  -87.9190   -5.4530 C.3     2  LIG2       -0.0593
     14    C      -71.1430  -89.8680   -9.5130 C.3     2  LIG2       -0.0498
     15    C      -72.8920  -88.0140   -9.1680 C.3     2  LIG2       -0.0621
     16    C      -66.9050  -89.4900   -9.7080 C.3     2  LIG2       -0.0358
     17    H      -69.4630  -86.0570   -7.4980 H       2  LIG2        0.0312
     18    H      -68.3630  -87.4170   -5.6970 H       2  LIG2        0.0309
     19    H      -70.6900  -86.8530   -9.1990 H       2  LIG2        0.0310
     20    H      -68.8960  -87.5650  -10.1390 H       2  LIG2        0.0331
     21    H      -68.8590  -89.8220   -5.4600 H       2  LIG2        0.0269
     22    H      -70.0620  -89.7980   -6.6870 H       2  LIG2        0.0269
     23    H      -71.8310  -89.0940   -7.6960 H       2  LIG2        0.0301
     24    H      -70.2960  -88.9090  -11.2440 H       2  LIG2        0.0269
     25    H      -69.3260  -90.2220  -10.6240 H       2  LIG2        0.0269
     26    H      -67.1030  -89.8400   -6.9810 H       2  LIG2        0.0293
     27    H      -68.3280  -90.7360   -7.8080 H       2  LIG2        0.0293
     28    H      -70.4220  -86.0530   -3.9340 H       2  LIG2        0.0235
     29    H      -71.2920  -85.1590   -5.1790 H       2  LIG2        0.0235
     30    H      -69.5390  -85.2540   -5.2220 H       2  LIG2        0.0235
     31    H      -71.9890  -87.8490   -4.3790 H       2  LIG2        0.0235
     32    H      -71.7470  -88.9850   -5.6460 H       2  LIG2        0.0235
     33    H      -72.7000  -87.5290   -5.9480 H       2  LIG2        0.0235
     34    H      -70.8450  -90.7000   -8.8720 H       2  LIG2        0.0268
     35    H      -71.9330  -90.2430  -10.1660 H       2  LIG2        0.0268
     36    H      -72.7750  -87.6350  -10.1840 H       2  LIG2        0.0233
     37    H      -73.1790  -87.1780   -8.5310 H       2  LIG2        0.0233
     38    H      -73.7200  -88.7230   -9.1720 H       2  LIG2        0.0233
     39    H      -67.2300  -90.4870  -10.0070 H       2  LIG2        0.0257
     40    H      -65.9180  -89.6150   -9.2590 H       2  LIG2        0.0257
     41    H      -66.7740  -88.9010  -10.6170 H       2  LIG2        0.0257
     42    H      -66.3840  -87.9090   -7.9190 H       2  LIG2        0.2102
@<TRIPOS>BOND
     1    24    10    1
     2    25    10    1
     3    41    16    1
     4    10    14    1
     5    10     6    1
     6    36    15    1
     7    35    14    1
     8    20     6    1
     9    39    16    1
    10    16    40    1
    11    16     9    1
    12    14    34    1
    13    14     8    1
    14     6     9    1
    15     6     5    1
    16    19     5    1
    17    38    15    1
    18    15     8    1
    19    15    37    1
    20     9     1    1
    21     9    11    1
    22     8     5    1
    23     8    23    1
    24     5     2    1
    25     1    42    1
    26    27    11    1
    27    17     2    1
    28    11    26    1
    29    11     7    1
    30     2     4    1
    31     2     3    1
    32    22     7    1
    33     7     4    1
    34     7    21    1
    35     4     3    1
    36     4    18    1
    37    33    13    1
    38     3    13    1
    39     3    12    1
    40    32    13    1
    41    13    31    1
    42    30    12    1
    43    29    12    1
    44    12    28    1
@<TRIPOS>MOLECULE
11996452_9_run_13.pdb
 42 44 0 0 0
SMALL
GASTEIGER

@<TRIPOS>ATOM
      1    O      -66.5390  -89.5060   -8.9430 O.3     2  LIG2       -0.3886
      2    C      -67.8950  -89.4030   -6.2680 C.3     2  LIG2       -0.0289
      3    C      -68.5290  -90.4960   -5.3950 C.3     2  LIG2       -0.0284
      4    C      -68.2280  -90.7770   -6.8540 C.3     2  LIG2       -0.0319
      5    C      -68.5330  -88.1200   -6.9040 C.3     2  LIG2       -0.0294
      6    C      -68.1890  -87.8430   -8.4050 C.3     2  LIG2       -0.0090
      7    C      -69.2740  -90.8250   -7.9890 C.3     2  LIG2       -0.0468
      8    C      -70.0330  -87.7580   -6.6950 C.3     2  LIG2       -0.0404
      9    C      -67.8170  -89.0450   -9.3570 C.3     2  LIG2        0.0664
     10    C      -69.3310  -86.9210   -8.8820 C.3     2  LIG2       -0.0471
     11    C      -68.7790  -90.2740   -9.3450 C.3     2  LIG2       -0.0237
     12    C      -67.5820  -91.1350   -4.3590 C.3     2  LIG2       -0.0593
     13    C      -69.9940  -90.5270   -4.8970 C.3     2  LIG2       -0.0593
     14    C      -70.5580  -87.3060   -8.0660 C.3     2  LIG2       -0.0498
     15    C      -70.2780  -86.7270   -5.5760 C.3     2  LIG2       -0.0621
     16    C      -67.5790  -88.6000  -10.8210 C.3     2  LIG2       -0.0358
     17    H      -66.8310  -89.2200   -6.1020 H       2  LIG2        0.0312
     18    H      -67.4100  -91.4720   -7.0480 H       2  LIG2        0.0309
     19    H      -67.9990  -87.3250   -6.3780 H       2  LIG2        0.0310
     20    H      -67.2990  -87.2070   -8.4050 H       2  LIG2        0.0331
     21    H      -69.5970  -91.8580   -8.1230 H       2  LIG2        0.0269
     22    H      -70.1810  -90.2900   -7.7290 H       2  LIG2        0.0269
     23    H      -70.6260  -88.6210   -6.4410 H       2  LIG2        0.0301
     24    H      -69.0710  -85.8790   -8.6860 H       2  LIG2        0.0269
     25    H      -69.5460  -86.9880   -9.9470 H       2  LIG2        0.0269
     26    H      -68.3150  -91.0930   -9.9020 H       2  LIG2        0.0293
     27    H      -69.6690  -90.0180   -9.9220 H       2  LIG2        0.0293
     28    H      -67.8800  -92.1590   -4.1300 H       2  LIG2        0.0235
     29    H      -67.5840  -90.5690   -3.4290 H       2  LIG2        0.0235
     30    H      -66.5500  -91.1750   -4.7120 H       2  LIG2        0.0235
     31    H      -70.1880  -91.4420   -4.3360 H       2  LIG2        0.0235
     32    H      -70.7470  -90.5250   -5.6780 H       2  LIG2        0.0235
     33    H      -70.1920  -89.6940   -4.2220 H       2  LIG2        0.0235
     34    H      -71.0900  -88.1240   -8.5560 H       2  LIG2        0.0268
     35    H      -71.2600  -86.4740   -7.9960 H       2  LIG2        0.0268
     36    H      -69.7860  -85.7780   -5.7920 H       2  LIG2        0.0233
     37    H      -69.8980  -87.0900   -4.6210 H       2  LIG2        0.0233
     38    H      -71.3420  -86.5270   -5.4500 H       2  LIG2        0.0233
     39    H      -68.5100  -88.3510  -11.3300 H       2  LIG2        0.0257
     40    H      -67.1100  -89.3880  -11.4140 H       2  LIG2        0.0257
     41    H      -66.9290  -87.7250  -10.8770 H       2  LIG2        0.0257
     42    H      -66.0570  -88.7680   -8.5650 H       2  LIG2        0.2102
@<TRIPOS>BOND
     1    40    16    1
     2    39    16    1
     3    41    16    1
     4    16     9    1
     5    25    10    1
     6    27    11    1
     7    26    11    1
     8     9    11    1
     9     9     1    1
    10     9     6    1
    11    11     7    1
    12     1    42    1
    13    10    24    1
    14    10     6    1
    15    10    14    1
    16    34    14    1
    17     6    20    1
    18     6     5    1
    19    21     7    1
    20    14    35    1
    21    14     8    1
    22     7    22    1
    23     7     4    1
    24    18     4    1
    25     5     8    1
    26     5    19    1
    27     5     2    1
    28     4     2    1
    29     4     3    1
    30     8    23    1
    31     8    15    1
    32     2    17    1
    33     2     3    1
    34    36    15    1
    35    32    13    1
    36    15    38    1
    37    15    37    1
    38     3    13    1
    39     3    12    1
    40    13    31    1
    41    13    33    1
    42    30    12    1
    43    12    28    1
    44    12    29    1
@<TRIPOS>MOLECULE
11996452_9_run_2.pdb
 42 44 0 0 0
SMALL
GASTEIGER

@<TRIPOS>ATOM
      1    O      -70.7130  -88.6590  -10.4290 O.3     2  LIG2       -0.3886
      2    C      -70.5920  -88.5320   -7.4330 C.3     2  LIG2       -0.0289
      3    C      -70.3870  -87.3600   -6.4620 C.3     2  LIG2       -0.0284
      4    C      -70.0570  -87.1870   -7.9310 C.3     2  LIG2       -0.0319
      5    C      -69.7360  -89.8270   -7.6470 C.3     2  LIG2       -0.0294
      6    C      -69.4220  -90.2170   -9.1310 C.3     2  LIG2       -0.0090
      7    C      -68.6340  -87.1730   -8.5310 C.3     2  LIG2       -0.0468
      8    C      -68.4560  -90.1160   -6.8090 C.3     2  LIG2       -0.0404
      9    C      -69.3750  -89.0960  -10.2390 C.3     2  LIG2        0.0664
     10    C      -68.1780  -91.1220   -9.0200 C.3     2  LIG2       -0.0471
     11    C      -68.5150  -87.8310   -9.9240 C.3     2  LIG2       -0.0237
     12    C      -71.6850  -86.6910   -5.9640 C.3     2  LIG2       -0.0593
     13    C      -69.2630  -87.2390   -5.4060 C.3     2  LIG2       -0.0593
     14    C      -67.4050  -90.6360   -7.8000 C.3     2  LIG2       -0.0498
     15    C      -68.6900  -91.0610   -5.6140 C.3     2  LIG2       -0.0621
     16    C      -68.9790  -89.6450  -11.6320 C.3     2  LIG2       -0.0358
     17    H      -71.6270  -88.7450   -7.7090 H       2  LIG2        0.0312
     18    H      -70.7260  -86.5390   -8.4990 H       2  LIG2        0.0309
     19    H      -70.4340  -90.6070   -7.3310 H       2  LIG2        0.0310
     20    H      -70.2270  -90.8850   -9.4510 H       2  LIG2        0.0331
     21    H      -68.2930  -86.1390   -8.5970 H       2  LIG2        0.0269
     22    H      -67.9130  -87.6540   -7.8790 H       2  LIG2        0.0269
     23    H      -68.0300  -89.2160   -6.3990 H       2  LIG2        0.0301
     24    H      -68.4870  -92.1590   -8.8700 H       2  LIG2        0.0269
     25    H      -67.5400  -91.1170   -9.9020 H       2  LIG2        0.0269
     26    H      -68.7120  -87.0700  -10.6840 H       2  LIG2        0.0293
     27    H      -67.4640  -88.0900  -10.0590 H       2  LIG2        0.0293
     28    H      -71.5170  -85.6440   -5.7100 H       2  LIG2        0.0235
     29    H      -72.0650  -87.1950   -5.0760 H       2  LIG2        0.0235
     30    H      -72.4770  -86.7150   -6.7140 H       2  LIG2        0.0235
     31    H      -69.3280  -86.2820   -4.8860 H       2  LIG2        0.0235
     32    H      -68.2530  -87.2620   -5.8020 H       2  LIG2        0.0235
     33    H      -69.3570  -88.0170   -4.6480 H       2  LIG2        0.0235
     34    H      -66.7240  -89.8320   -8.0870 H       2  LIG2        0.0268
     35    H      -66.7890  -91.4340   -7.3830 H       2  LIG2        0.0268
     36    H      -69.0400  -92.0410   -5.9420 H       2  LIG2        0.0233
     37    H      -69.4370  -90.6510   -4.9330 H       2  LIG2        0.0233
     38    H      -67.7730  -91.2100   -5.0440 H       2  LIG2        0.0233
     39    H      -67.9180  -89.8900  -11.6890 H       2  LIG2        0.0257
     40    H      -69.1650  -88.9170  -12.4240 H       2  LIG2        0.0257
     41    H      -69.5390  -90.5470  -11.8850 H       2  LIG2        0.0257
     42    H      -70.7150  -87.9620  -11.0880 H       2  LIG2        0.2102
@<TRIPOS>BOND
     1    40    16    1
     2    41    16    1
     3    39    16    1
     4    16     9    1
     5    42     1    1
     6    26    11    1
     7     1     9    1
     8     9    11    1
     9     9     6    1
    10    27    11    1
    11    11     7    1
    12    25    10    1
    13    20     6    1
    14     6    10    1
    15     6     5    1
    16    10    24    1
    17    10    14    1
    18    21     7    1
    19     7     4    1
    20     7    22    1
    21    18     4    1
    22    34    14    1
    23     4     2    1
    24     4     3    1
    25    14    35    1
    26    14     8    1
    27    17     2    1
    28     5     2    1
    29     5    19    1
    30     5     8    1
    31     2     3    1
    32     8    23    1
    33     8    15    1
    34    30    12    1
    35     3    12    1
    36     3    13    1
    37    12    28    1
    38    12    29    1
    39    36    15    1
    40    32    13    1
    41    15    38    1
    42    15    37    1
    43    13    31    1
    44    13    33    1
@<TRIPOS>MOLECULE
11996452_9_run_2.pdb
 42 44 0 0 0
SMALL
GASTEIGER

@<TRIPOS>ATOM
      1    O      -66.7890  -89.5290   -7.4470 O.3     2  LIG2       -0.3886
      2    C      -68.7780  -90.6370   -9.4020 C.3     2  LIG2       -0.0289
      3    C      -69.0310  -90.3430  -10.8870 C.3     2  LIG2       -0.0284
      4    C      -68.1930  -89.3860  -10.0630 C.3     2  LIG2       -0.0319
      5    C      -69.7280  -90.4800   -8.1650 C.3     2  LIG2       -0.0294
      6    C      -69.1150  -89.7910   -6.8990 C.3     2  LIG2       -0.0090
      7    C      -68.6670  -88.0180   -9.5260 C.3     2  LIG2       -0.0468
      8    C      -71.1910  -89.9680   -8.3110 C.3     2  LIG2       -0.0404
      9    C      -67.9260  -88.7680   -7.0660 C.3     2  LIG2        0.0664
     10    C      -70.3470  -89.2870   -6.1190 C.3     2  LIG2       -0.0471
     11    C      -68.1090  -87.6440   -8.1340 C.3     2  LIG2       -0.0237
     12    C      -68.2710  -91.2540  -11.8720 C.3     2  LIG2       -0.0593
     13    C      -70.3640  -89.8540  -11.5040 C.3     2  LIG2       -0.0593
     14    C      -71.4120  -88.9730   -7.1620 C.3     2  LIG2       -0.0498
     15    C      -72.2460  -91.0920   -8.3570 C.3     2  LIG2       -0.0621
     16    C      -67.4920  -88.1270   -5.7240 C.3     2  LIG2       -0.0358
     17    H      -68.0540  -91.4260   -9.1910 H       2  LIG2        0.0312
     18    H      -67.1260  -89.3680  -10.2890 H       2  LIG2        0.0309
     19    H      -69.8470  -91.5180   -7.8460 H       2  LIG2        0.0310
     20    H      -68.7020  -90.5940   -6.2820 H       2  LIG2        0.0331
     21    H      -68.3810  -87.2450  -10.2410 H       2  LIG2        0.0269
     22    H      -69.7470  -87.9530   -9.4750 H       2  LIG2        0.0269
     23    H      -71.3300  -89.3910   -9.2090 H       2  LIG2        0.0301
     24    H      -70.7070  -90.0720   -5.4510 H       2  LIG2        0.0269
     25    H      -70.1570  -88.4160   -5.4950 H       2  LIG2        0.0269
     26    H      -67.1570  -87.1260   -8.2700 H       2  LIG2        0.0293
     27    H      -68.7800  -86.8870   -7.7230 H       2  LIG2        0.0293
     28    H      -68.0830  -90.7450  -12.8180 H       2  LIG2        0.0235
     29    H      -68.8410  -92.1580  -12.0850 H       2  LIG2        0.0235
     30    H      -67.3010  -91.5670  -11.4810 H       2  LIG2        0.0235
     31    H      -70.2490  -89.6800  -12.5750 H       2  LIG2        0.0235
     32    H      -70.7340  -88.9110  -11.1160 H       2  LIG2        0.0235
     33    H      -71.1440  -90.6070  -11.3890 H       2  LIG2        0.0235
     34    H      -71.2900  -87.9480   -7.5210 H       2  LIG2        0.0268
     35    H      -72.4130  -89.0380   -6.7330 H       2  LIG2        0.0268
     36    H      -72.2430  -91.6800   -7.4380 H       2  LIG2        0.0233
     37    H      -72.0560  -91.7700   -9.1890 H       2  LIG2        0.0233
     38    H      -73.2490  -90.6860   -8.4870 H       2  LIG2        0.0233
     39    H      -68.2140  -87.3900   -5.3710 H       2  LIG2        0.0257
     40    H      -66.5400  -87.6020   -5.8130 H       2  LIG2        0.0257
     41    H      -67.3750  -88.8760   -4.9390 H       2  LIG2        0.0257
     42    H      -66.0190  -88.9560   -7.4290 H       2  LIG2        0.2102
@<TRIPOS>BOND
     1    28    12    1
     2    31    13    1
     3    29    12    1
     4    12    30    1
     5    12     3    1
     6    13    33    1
     7    13    32    1
     8    13     3    1
     9     3     4    1
    10     3     2    1
    11    18     4    1
    12    21     7    1
    13     4     7    1
    14     4     2    1
    15     7    22    1
    16     7    11    1
    17     2    17    1
    18     2     5    1
    19    23     8    1
    20    37    15    1
    21    38    15    1
    22    15     8    1
    23    15    36    1
    24     8     5    1
    25     8    14    1
    26    26    11    1
    27     5    19    1
    28     5     6    1
    29    11    27    1
    30    11     9    1
    31    34    14    1
    32     1    42    1
    33     1     9    1
    34    14    35    1
    35    14    10    1
    36     9     6    1
    37     9    16    1
    38     6    20    1
    39     6    10    1
    40    10    25    1
    41    10    24    1
    42    40    16    1
    43    16    39    1
    44    16    41    1
@<TRIPOS>MOLECULE
11996452_9_run_2.pdb
 42 44 0 0 0
SMALL
GASTEIGER

@<TRIPOS>ATOM
      1    O      -70.0720  -85.7100   -7.0150 O.3     2  LIG2       -0.3886
      2    C      -68.5490  -88.1020   -7.9990 C.3     2  LIG2       -0.0289
      3    C      -68.6710  -88.9420   -9.2780 C.3     2  LIG2       -0.0284
      4    C      -69.7970  -88.0080   -8.8810 C.3     2  LIG2       -0.0319
      5    C      -68.6990  -88.5210   -6.4960 C.3     2  LIG2       -0.0294
      6    C      -69.5730  -87.5850   -5.5960 C.3     2  LIG2       -0.0090
      7    C      -71.1380  -88.4430   -8.2520 C.3     2  LIG2       -0.0468
      8    C      -69.0080  -89.9890   -6.0790 C.3     2  LIG2       -0.0404
      9    C      -70.7170  -86.7180   -6.2490 C.3     2  LIG2        0.0664
     10    C      -69.9880  -88.4890   -4.4160 C.3     2  LIG2       -0.0471
     11    C      -71.7060  -87.4610   -7.2020 C.3     2  LIG2       -0.0237
     12    C      -67.7750  -88.4850  -10.4480 C.3     2  LIG2       -0.0593
     13    C      -68.9300  -90.4660   -9.3450 C.3     2  LIG2       -0.0593
     14    C      -70.0700  -89.9040   -4.9730 C.3     2  LIG2       -0.0498
     15    C      -67.7620  -90.7990   -5.6700 C.3     2  LIG2       -0.0621
     16    C      -71.5270  -85.9090   -5.2070 C.3     2  LIG2       -0.0358
     17    H      -67.8790  -87.2420   -8.0580 H       2  LIG2        0.0312
     18    H      -69.9270  -87.1230   -9.5050 H       2  LIG2        0.0309
     19    H      -67.6880  -88.3520   -6.1190 H       2  LIG2        0.0310
     20    H      -68.8880  -86.8520   -5.1590 H       2  LIG2        0.0331
     21    H      -71.8720  -88.5710   -9.0500 H       2  LIG2        0.0269
     22    H      -71.0720  -89.4190   -7.7870 H       2  LIG2        0.0269
     23    H      -69.4780  -90.5450   -6.8740 H       2  LIG2        0.0301
     24    H      -69.2290  -88.4450   -3.6320 H       2  LIG2        0.0269
     25    H      -70.9300  -88.2090   -3.9480 H       2  LIG2        0.0269
     26    H      -72.3250  -86.7230   -7.7170 H       2  LIG2        0.0293
     27    H      -72.4070  -88.0310   -6.5900 H       2  LIG2        0.0293
     28    H      -68.2150  -88.7500  -11.4100 H       2  LIG2        0.0235
     29    H      -66.7920  -88.9490  -10.3880 H       2  LIG2        0.0235
     30    H      -67.6240  -87.4040  -10.4540 H       2  LIG2        0.0235
     31    H      -69.0190  -90.7940  -10.3810 H       2  LIG2        0.0235
     32    H      -69.8510  -90.7990   -8.8780 H       2  LIG2        0.0235
     33    H      -68.1000  -91.0200   -8.9070 H       2  LIG2        0.0235
     34    H      -71.0640  -90.0850   -5.3870 H       2  LIG2        0.0268
     35    H      -69.9200  -90.6450   -4.1850 H       2  LIG2        0.0268
     36    H      -67.2650  -90.3590   -4.8050 H       2  LIG2        0.0233
     37    H      -67.0390  -90.8400   -6.4850 H       2  LIG2        0.0233
     38    H      -68.0250  -91.8250   -5.4140 H       2  LIG2        0.0233
     39    H      -72.1980  -86.5440   -4.6270 H       2  LIG2        0.0257
     40    H      -72.1570  -85.1530   -5.6790 H       2  LIG2        0.0257
     41    H      -70.8750  -85.3900   -4.5020 H       2  LIG2        0.0257
     42    H      -70.7450  -85.1820   -7.4500 H       2  LIG2        0.2102
@<TRIPOS>BOND
     1    28    12    1
     2    30    12    1
     3    12    29    1
     4    12     3    1
     5    31    13    1
     6    18     4    1
     7    13     3    1
     8    13    33    1
     9    13    32    1
    10     3     4    1
    11     3     2    1
    12    21     7    1
    13     4     7    1
    14     4     2    1
    15     7    22    1
    16     7    11    1
    17    17     2    1
    18     2     5    1
    19    26    11    1
    20    42     1    1
    21    11    27    1
    22    11     9    1
    23     1     9    1
    24    23     8    1
    25     5    19    1
    26     5     8    1
    27     5     6    1
    28    37    15    1
    29     9     6    1
    30     9    16    1
    31     8    15    1
    32     8    14    1
    33    40    16    1
    34    15    38    1
    35    15    36    1
    36     6    20    1
    37     6    10    1
    38    34    14    1
    39    16    39    1
    40    16    41    1
    41    14    10    1
    42    14    35    1
    43    10    25    1
    44    10    24    1
