@<TRIPOS>MOLECULE
11996452_11_run_5.pdb
 42 44 0 0 0
SMALL
GASTEIGER

@<TRIPOS>ATOM
      1    O      -66.7220  -87.6590  -10.5020 O.3     2  LIG2       -0.3886
      2    C      -71.0260  -88.4890   -9.2350 C.3     2  LIG2       -0.0289
      3    C      -71.6140  -88.7750   -7.8650 C.3     2  LIG2       -0.0284
      4    C      -70.5040  -87.7540   -7.9920 C.3     2  LIG2       -0.0319
      5    C      -70.0590  -89.4510   -9.9740 C.3     2  LIG2       -0.0294
      6    C      -68.9050  -88.6590  -10.6450 C.3     2  LIG2       -0.0090
      7    C      -69.0510  -87.9900   -7.5160 C.3     2  LIG2       -0.0468
      8    C      -70.6880  -90.3510  -11.0780 C.3     2  LIG2       -0.0404
      9    C      -67.6590  -88.3960   -9.7330 C.3     2  LIG2        0.0664
     10    C      -68.6420  -89.3960  -11.9710 C.3     2  LIG2       -0.0471
     11    C      -67.9770  -87.4870   -8.5070 C.3     2  LIG2       -0.0237
     12    C      -73.0310  -88.2330   -7.6040 C.3     2  LIG2       -0.0593
     13    C      -71.3860  -90.1340   -7.1610 C.3     2  LIG2       -0.0593
     14    C      -70.0060  -89.9400  -12.3880 C.3     2  LIG2       -0.0498
     15    C      -72.2290  -90.3410  -11.1750 C.3     2  LIG2       -0.0621
     16    C      -66.9000  -89.6690   -9.2780 C.3     2  LIG2       -0.0358
     17    H      -71.6080  -87.8830   -9.9300 H       2  LIG2        0.0312
     18    H      -70.7990  -86.7150   -7.8380 H       2  LIG2        0.0309
     19    H      -69.6190  -90.1400   -9.2590 H       2  LIG2        0.0310
     20    H      -69.2940  -87.6790  -10.9340 H       2  LIG2        0.0331
     21    H      -68.9260  -87.4430   -6.5820 H       2  LIG2        0.0269
     22    H      -68.8570  -89.0290   -7.2580 H       2  LIG2        0.0269
     23    H      -70.3980  -91.3840  -10.8760 H       2  LIG2        0.0301
     24    H      -68.2310  -88.7320  -12.7330 H       2  LIG2        0.0269
     25    H      -67.9400  -90.2190  -11.8430 H       2  LIG2        0.0269
     26    H      -68.2910  -86.5010   -8.8560 H       2  LIG2        0.0293
     27    H      -67.0570  -87.3140   -7.9440 H       2  LIG2        0.0293
     28    H      -73.2000  -88.0710   -6.5390 H       2  LIG2        0.0235
     29    H      -73.7890  -88.9310   -7.9610 H       2  LIG2        0.0235
     30    H      -73.2070  -87.2810   -8.1080 H       2  LIG2        0.0235
     31    H      -71.5260  -90.0370   -6.0850 H       2  LIG2        0.0235
     32    H      -70.3980  -90.5610   -7.3100 H       2  LIG2        0.0235
     33    H      -72.1020  -90.8740   -7.5200 H       2  LIG2        0.0235
     34    H      -69.9040  -90.7790  -13.0770 H       2  LIG2        0.0268
     35    H      -70.5800  -89.1660  -12.9010 H       2  LIG2        0.0268
     36    H      -72.6150  -89.3560  -11.4390 H       2  LIG2        0.0233
     37    H      -72.6850  -90.6390  -10.2300 H       2  LIG2        0.0233
     38    H      -72.5740  -91.0400  -11.9380 H       2  LIG2        0.0233
     39    H      -67.5140  -90.3270   -8.6640 H       2  LIG2        0.0257
     40    H      -66.0220  -89.4160   -8.6790 H       2  LIG2        0.0257
     41    H      -66.5370  -90.2580  -10.1190 H       2  LIG2        0.0257
     42    H      -67.0790  -86.7810  -10.6550 H       2  LIG2        0.2102
@<TRIPOS>BOND
     1    34    14    1
     2    35    14    1
     3    24    10    1
     4    14    10    1
     5    14     8    1
     6    10    25    1
     7    10     6    1
     8    38    15    1
     9    36    15    1
    10    15     8    1
    11    15    37    1
    12     8    23    1
    13     8     5    1
    14    20     6    1
    15    42     1    1
    16     6     5    1
    17     6     9    1
    18     1     9    1
    19    41    16    1
    20     5    19    1
    21     5     2    1
    22    17     2    1
    23     9    16    1
    24     9    11    1
    25    16    40    1
    26    16    39    1
    27     2     4    1
    28     2     3    1
    29    26    11    1
    30    11    27    1
    31    11     7    1
    32    30    12    1
    33     4     3    1
    34     4    18    1
    35     4     7    1
    36    29    12    1
    37     3    12    1
    38     3    13    1
    39    12    28    1
    40    33    13    1
    41     7    22    1
    42     7    21    1
    43    32    13    1
    44    13    31    1
@<TRIPOS>MOLECULE
11996452_11_run_10.pdb
 42 44 0 0 0
SMALL
GASTEIGER

@<TRIPOS>ATOM
      1    O      -72.9040  -86.1590   -6.7870 O.3     2  LIG2       -0.3886
      2    C      -68.8630  -87.8570   -8.0540 C.3     2  LIG2       -0.0289
      3    C      -68.5220  -88.9840   -9.0110 C.3     2  LIG2       -0.0284
      4    C      -69.6680  -88.0540   -9.3460 C.3     2  LIG2       -0.0319
      5    C      -69.5910  -88.0680   -6.7010 C.3     2  LIG2       -0.0294
      6    C      -70.6590  -86.9640   -6.4750 C.3     2  LIG2       -0.0090
      7    C      -71.1600  -88.4540   -9.2670 C.3     2  LIG2       -0.0468
      8    C      -68.6940  -88.0930   -5.4290 C.3     2  LIG2       -0.0404
      9    C      -72.0720  -87.2700   -7.0780 C.3     2  LIG2        0.0664
     10    C      -70.6060  -86.6700   -4.9650 C.3     2  LIG2       -0.0471
     11    C      -72.0660  -87.3720   -8.6340 C.3     2  LIG2       -0.0237
     12    C      -67.2280  -88.8170   -9.8300 C.3     2  LIG2       -0.0593
     13    C      -68.7670  -90.4640   -8.6300 C.3     2  LIG2       -0.0593
     14    C      -69.1490  -86.9020   -4.5760 C.3     2  LIG2       -0.0498
     15    C      -67.1690  -88.1140   -5.6650 C.3     2  LIG2       -0.0621
     16    C      -72.7970  -88.4940   -6.4620 C.3     2  LIG2       -0.0358
     17    H      -68.2110  -86.9830   -8.0330 H       2  LIG2        0.0312
     18    H      -69.4930  -87.3700  -10.1790 H       2  LIG2        0.0309
     19    H      -70.1010  -89.0270   -6.7110 H       2  LIG2        0.0310
     20    H      -70.3040  -86.0500   -6.9580 H       2  LIG2        0.0331
     21    H      -71.5030  -88.6210  -10.2880 H       2  LIG2        0.0269
     22    H      -71.3130  -89.4050   -8.7610 H       2  LIG2        0.0269
     23    H      -68.9320  -88.9980   -4.8670 H       2  LIG2        0.0301
     24    H      -70.9190  -85.6500   -4.7360 H       2  LIG2        0.0269
     25    H      -71.2510  -87.3420   -4.4000 H       2  LIG2        0.0269
     26    H      -71.7730  -86.4100   -9.0610 H       2  LIG2        0.0293
     27    H      -73.0860  -87.5440   -8.9840 H       2  LIG2        0.0293
     28    H      -67.2770  -89.3810  -10.7610 H       2  LIG2        0.0235
     29    H      -66.3620  -89.1700   -9.2680 H       2  LIG2        0.0235
     30    H      -67.0390  -87.7750  -10.0910 H       2  LIG2        0.0235
     31    H      -68.8410  -91.0830   -9.5230 H       2  LIG2        0.0235
     32    H      -69.6710  -90.6380   -8.0530 H       2  LIG2        0.0235
     33    H      -67.9380  -90.8450   -8.0320 H       2  LIG2        0.0235
     34    H      -69.0500  -87.1010   -3.5090 H       2  LIG2        0.0268
     35    H      -68.5530  -86.0140   -4.7970 H       2  LIG2        0.0268
     36    H      -66.8210  -87.2110   -6.1690 H       2  LIG2        0.0233
     37    H      -66.8760  -88.9710   -6.2720 H       2  LIG2        0.0233
     38    H      -66.6300  -88.1850   -4.7200 H       2  LIG2        0.0233
     39    H      -72.2570  -89.4260   -6.6230 H       2  LIG2        0.0257
     40    H      -73.7890  -88.6300   -6.8970 H       2  LIG2        0.0257
     41    H      -72.9450  -88.3900   -5.3870 H       2  LIG2        0.0257
     42    H      -72.5390  -85.3840   -7.2220 H       2  LIG2        0.2102
@<TRIPOS>BOND
     1    28    12    1
     2    21     7    1
     3    18     4    1
     4    30    12    1
     5    12    29    1
     6    12     3    1
     7    31    13    1
     8     4     7    1
     9     4     3    1
    10     4     2    1
    11     7    22    1
    12     7    11    1
    13    26    11    1
    14     3    13    1
    15     3     2    1
    16    27    11    1
    17    11     9    1
    18    13    32    1
    19    13    33    1
    20     2    17    1
    21     2     5    1
    22    42     1    1
    23     9     1    1
    24     9     6    1
    25     9    16    1
    26    20     6    1
    27    40    16    1
    28    19     5    1
    29     5     6    1
    30     5     8    1
    31    39    16    1
    32     6    10    1
    33    16    41    1
    34    37    15    1
    35    36    15    1
    36    15     8    1
    37    15    38    1
    38     8    23    1
    39     8    14    1
    40    10    24    1
    41    10    14    1
    42    10    25    1
    43    35    14    1
    44    14    34    1
@<TRIPOS>MOLECULE
11996452_11_run_8.pdb
 42 44 0 0 0
SMALL
GASTEIGER

@<TRIPOS>ATOM
      1    O      -70.6400  -89.4090  -12.8570 O.3     2  LIG2       -0.3886
      2    C      -69.5570  -89.2100   -8.4290 C.3     2  LIG2       -0.0289
      3    C      -68.2730  -89.5790   -7.7090 C.3     2  LIG2       -0.0284
      4    C      -68.1920  -88.9130   -9.0650 C.3     2  LIG2       -0.0319
      5    C      -70.4800  -90.2420   -9.1280 C.3     2  LIG2       -0.0294
      6    C      -70.9780  -89.6970  -10.4930 C.3     2  LIG2       -0.0090
      7    C      -67.7770  -89.6420  -10.3650 C.3     2  LIG2       -0.0468
      8    C      -71.7420  -90.6900   -8.3340 C.3     2  LIG2       -0.0404
      9    C      -70.0350  -89.9850  -11.7100 C.3     2  LIG2        0.0664
     10    C      -72.4270  -90.2030  -10.6120 C.3     2  LIG2       -0.0471
     11    C      -68.6480  -89.2820  -11.5910 C.3     2  LIG2       -0.0237
     12    C      -67.9030  -88.7180   -6.4870 C.3     2  LIG2       -0.0593
     13    C      -67.8620  -91.0570   -7.5080 C.3     2  LIG2       -0.0593
     14    C      -72.9430  -90.2420   -9.1770 C.3     2  LIG2       -0.0498
     15    C      -71.8310  -90.2230   -6.8660 C.3     2  LIG2       -0.0621
     16    C      -69.8500  -91.4840  -12.0560 C.3     2  LIG2       -0.0358
     17    H      -70.1130  -88.3390   -8.0790 H       2  LIG2        0.0312
     18    H      -67.8290  -87.8840   -9.0650 H       2  LIG2        0.0309
     19    H      -69.9210  -91.1550   -9.3170 H       2  LIG2        0.0310
     20    H      -71.0600  -88.6090  -10.4100 H       2  LIG2        0.0331
     21    H      -66.7520  -89.3470  -10.5870 H       2  LIG2        0.0269
     22    H      -67.7380  -90.7230  -10.2460 H       2  LIG2        0.0269
     23    H      -71.7560  -91.7820   -8.3130 H       2  LIG2        0.0301
     24    H      -73.0390  -89.5470  -11.2350 H       2  LIG2        0.0269
     25    H      -72.4720  -91.2000  -11.0480 H       2  LIG2        0.0269
     26    H      -68.7880  -88.1980  -11.5850 H       2  LIG2        0.0293
     27    H      -68.0640  -89.4920  -12.4890 H       2  LIG2        0.0293
     28    H      -66.8280  -88.7270   -6.3120 H       2  LIG2        0.0235
     29    H      -68.3940  -89.0870   -5.5860 H       2  LIG2        0.0235
     30    H      -68.2020  -87.6760   -6.6130 H       2  LIG2        0.0235
     31    H      -66.7880  -91.1380   -7.3410 H       2  LIG2        0.0235
     32    H      -68.0970  -91.7100   -8.3440 H       2  LIG2        0.0235
     33    H      -68.3630  -91.4770   -6.6350 H       2  LIG2        0.0235
     34    H      -73.7890  -90.9230   -9.0780 H       2  LIG2        0.0268
     35    H      -73.2850  -89.2520   -8.8710 H       2  LIG2        0.0268
     36    H      -71.8880  -89.1370   -6.7860 H       2  LIG2        0.0233
     37    H      -70.9660  -90.5580   -6.2930 H       2  LIG2        0.0233
     38    H      -72.7200  -90.6300   -6.3820 H       2  LIG2        0.0233
     39    H      -69.3830  -92.0470  -11.2490 H       2  LIG2        0.0257
     40    H      -69.2150  -91.6140  -12.9350 H       2  LIG2        0.0257
     41    H      -70.7950  -91.9760  -12.2860 H       2  LIG2        0.0257
     42    H      -70.8050  -88.4800  -12.6790 H       2  LIG2        0.2102
@<TRIPOS>BOND
     1    40    16    1
     2     1    42    1
     3     1     9    1
     4    27    11    1
     5    41    16    1
     6    16     9    1
     7    16    39    1
     8     9    11    1
     9     9     6    1
    10    11    26    1
    11    11     7    1
    12    24    10    1
    13    25    10    1
    14    10     6    1
    15    10    14    1
    16    21     7    1
    17     6    20    1
    18     6     5    1
    19     7    22    1
    20     7     4    1
    21    19     5    1
    22    14    34    1
    23    14    35    1
    24    14     8    1
    25     5     2    1
    26     5     8    1
    27    18     4    1
    28     4     2    1
    29     4     3    1
    30     2    17    1
    31     2     3    1
    32    32    13    1
    33     8    23    1
    34     8    15    1
    35     3    13    1
    36     3    12    1
    37    13    31    1
    38    13    33    1
    39    15    36    1
    40    15    38    1
    41    15    37    1
    42    30    12    1
    43    12    28    1
    44    12    29    1
@<TRIPOS>MOLECULE
11996452_11_run_7.pdb
 42 44 0 0 0
SMALL
GASTEIGER

@<TRIPOS>ATOM
      1    O      -66.2960  -89.5580   -8.9290 O.3     2  LIG2       -0.3886
      2    C      -70.7380  -89.9030   -7.9410 C.3     2  LIG2       -0.0289
      3    C      -71.9600  -89.7720   -8.8310 C.3     2  LIG2       -0.0284
      4    C      -70.7240  -90.4590   -9.3720 C.3     2  LIG2       -0.0319
      5    C      -69.7870  -88.7240   -7.6070 C.3     2  LIG2       -0.0294
      6    C      -68.3050  -89.1830   -7.6600 C.3     2  LIG2       -0.0090
      7    C      -69.7790  -89.8370  -10.4270 C.3     2  LIG2       -0.0468
      8    C      -69.9960  -88.0360   -6.2260 C.3     2  LIG2       -0.0404
      9    C      -67.6290  -89.0920   -9.0700 C.3     2  LIG2        0.0664
     10    C      -67.6150  -88.4150   -6.5180 C.3     2  LIG2       -0.0471
     11    C      -68.2770  -90.0420  -10.1230 C.3     2  LIG2       -0.0237
     12    C      -73.1590  -90.6730   -8.4810 C.3     2  LIG2       -0.0593
     13    C      -72.4200  -88.3960   -9.3670 C.3     2  LIG2       -0.0593
     14    C      -68.6930  -88.2610   -5.4480 C.3     2  LIG2       -0.0498
     15    C      -71.2500  -88.4610   -5.4320 C.3     2  LIG2       -0.0621
     16    C      -67.5000  -87.6590   -9.6450 C.3     2  LIG2       -0.0358
     17    H      -70.7550  -90.6490   -7.1460 H       2  LIG2        0.0312
     18    H      -70.8070  -91.5380   -9.5140 H       2  LIG2        0.0309
     19    H      -69.9180  -87.9350   -8.3430 H       2  LIG2        0.0310
     20    H      -68.2680  -90.2340   -7.3610 H       2  LIG2        0.0331
     21    H      -69.9960  -90.3220  -11.3790 H       2  LIG2        0.0269
     22    H      -69.9790  -88.7810  -10.6000 H       2  LIG2        0.0269
     23    H      -70.0860  -86.9620   -6.3960 H       2  LIG2        0.0301
     24    H      -66.7470  -88.9510   -6.1300 H       2  LIG2        0.0269
     25    H      -67.2730  -87.4320   -6.8410 H       2  LIG2        0.0269
     26    H      -68.1470  -91.0800   -9.8080 H       2  LIG2        0.0293
     27    H      -67.7310  -89.9560  -11.0640 H       2  LIG2        0.0293
     28    H      -73.7760  -90.8640   -9.3590 H       2  LIG2        0.0235
     29    H      -73.7890  -90.2070   -7.7230 H       2  LIG2        0.0235
     30    H      -72.8450  -91.6420   -8.0890 H       2  LIG2        0.0235
     31    H      -73.0330  -88.5170  -10.2600 H       2  LIG2        0.0235
     32    H      -71.6110  -87.7210   -9.6340 H       2  LIG2        0.0235
     33    H      -73.0240  -87.8790   -8.6210 H       2  LIG2        0.0235
     34    H      -68.4700  -87.4320   -4.7760 H       2  LIG2        0.0268
     35    H      -68.7530  -89.1660   -4.8400 H       2  LIG2        0.0268
     36    H      -71.2220  -89.5160   -5.1570 H       2  LIG2        0.0233
     37    H      -72.1590  -88.2880   -6.0080 H       2  LIG2        0.0233
     38    H      -71.3360  -87.8880   -4.5080 H       2  LIG2        0.0233
     39    H      -68.4670  -87.1840   -9.8090 H       2  LIG2        0.0257
     40    H      -66.9880  -87.6610  -10.6090 H       2  LIG2        0.0257
     41    H      -66.9250  -87.0010   -8.9940 H       2  LIG2        0.0257
     42    H      -65.8330  -88.9760   -8.3220 H       2  LIG2        0.2102
@<TRIPOS>BOND
     1    21     7    1
     2    27    11    1
     3    40    16    1
     4    22     7    1
     5     7    11    1
     6     7     4    1
     7    31    13    1
     8    11    26    1
     9    11     9    1
    10    39    16    1
    11    16     9    1
    12    16    41    1
    13    32    13    1
    14    18     4    1
    15     4     3    1
    16     4     2    1
    17    13     3    1
    18    13    33    1
    19    28    12    1
    20     9     1    1
    21     9     6    1
    22     1    42    1
    23     3    12    1
    24     3     2    1
    25    12    30    1
    26    12    29    1
    27    19     5    1
    28     2     5    1
    29     2    17    1
    30     6     5    1
    31     6    20    1
    32     6    10    1
    33     5     8    1
    34    25    10    1
    35    10    24    1
    36    10    14    1
    37    23     8    1
    38     8    14    1
    39     8    15    1
    40    37    15    1
    41    14    35    1
    42    14    34    1
    43    15    36    1
    44    15    38    1
@<TRIPOS>MOLECULE
11996452_11_run_16.pdb
 42 44 0 0 0
SMALL
GASTEIGER

@<TRIPOS>ATOM
      1    O      -69.7580  -88.9090  -11.5070 O.3     2  LIG2       -0.3886
      2    C      -70.6940  -87.6430   -7.2240 C.3     2  LIG2       -0.0289
      3    C      -69.7700  -87.2380   -6.0900 C.3     2  LIG2       -0.0284
      4    C      -69.4430  -86.7960   -7.5010 C.3     2  LIG2       -0.0319
      5    C      -70.7510  -89.0750   -7.8170 C.3     2  LIG2       -0.0294
      6    C      -70.8490  -89.0240   -9.3660 C.3     2  LIG2       -0.0090
      7    C      -68.2910  -87.3850   -8.3480 C.3     2  LIG2       -0.0468
      8    C      -71.9170  -89.9820   -7.3230 C.3     2  LIG2       -0.0404
      9    C      -69.4760  -88.9610  -10.1180 C.3     2  LIG2        0.0664
     10    C      -71.7840  -90.1880   -9.7390 C.3     2  LIG2       -0.0471
     11    C      -68.6720  -87.6590   -9.8210 C.3     2  LIG2       -0.0237
     12    C      -70.3010  -86.1580   -5.1290 C.3     2  LIG2       -0.0593
     13    C      -68.9020  -88.2820   -5.3490 C.3     2  LIG2       -0.0593
     14    C      -72.7570  -90.2930   -8.5680 C.3     2  LIG2       -0.0498
     15    C      -72.7600  -89.4370   -6.1510 C.3     2  LIG2       -0.0621
     16    C      -68.5700  -90.2060   -9.9330 C.3     2  LIG2       -0.0358
     17    H      -71.6470  -87.1220   -7.3240 H       2  LIG2        0.0312
     18    H      -69.5690  -85.7310   -7.7030 H       2  LIG2        0.0309
     19    H      -69.8420  -89.6100   -7.5580 H       2  LIG2        0.0310
     20    H      -71.3960  -88.1170   -9.6380 H       2  LIG2        0.0331
     21    H      -67.4820  -86.6540   -8.3430 H       2  LIG2        0.0269
     22    H      -67.8600  -88.2810   -7.9060 H       2  LIG2        0.0269
     23    H      -71.4870  -90.9260   -6.9820 H       2  LIG2        0.0301
     24    H      -72.3120  -90.0030  -10.6760 H       2  LIG2        0.0269
     25    H      -71.2380  -91.1240   -9.8520 H       2  LIG2        0.0269
     26    H      -69.2350  -86.7930  -10.1790 H       2  LIG2        0.0293
     27    H      -67.7520  -87.6660  -10.4080 H       2  LIG2        0.0293
     28    H      -69.4830  -85.6150   -4.6580 H       2  LIG2        0.0235
     29    H      -70.9070  -86.6030   -4.3390 H       2  LIG2        0.0235
     30    H      -70.9270  -85.4240   -5.6400 H       2  LIG2        0.0235
     31    H      -68.0520  -87.8020   -4.8650 H       2  LIG2        0.0235
     32    H      -68.4980  -89.0660   -5.9840 H       2  LIG2        0.0235
     33    H      -69.4850  -88.7790   -4.5730 H       2  LIG2        0.0235
     34    H      -73.2100  -91.2840   -8.5180 H       2  LIG2        0.0268
     35    H      -73.5660  -89.5710   -8.6840 H       2  LIG2        0.0268
     36    H      -73.2860  -88.5190   -6.4180 H       2  LIG2        0.0233
     37    H      -72.1380  -89.2260   -5.2820 H       2  LIG2        0.0233
     38    H      -73.5130  -90.1630   -5.8440 H       2  LIG2        0.0233
     39    H      -68.2720  -90.3570   -8.8960 H       2  LIG2        0.0257
     40    H      -67.6490  -90.1170  -10.5120 H       2  LIG2        0.0257
     41    H      -69.0540  -91.1230  -10.2670 H       2  LIG2        0.0257
     42    H      -70.2890  -88.1280  -11.6790 H       2  LIG2        0.2102
@<TRIPOS>BOND
     1    42     1    1
     2     1     9    1
     3    24    10    1
     4    40    16    1
     5    27    11    1
     6    41    16    1
     7    26    11    1
     8     9    16    1
     9     9    11    1
    10     9     6    1
    11    16    39    1
    12    25    10    1
    13    11     7    1
    14    10     6    1
    15    10    14    1
    16    20     6    1
    17     6     5    1
    18    35    14    1
    19    14    34    1
    20    14     8    1
    21     7    21    1
    22     7    22    1
    23     7     4    1
    24     5    19    1
    25     5     8    1
    26     5     2    1
    27    18     4    1
    28     4     2    1
    29     4     3    1
    30    17     2    1
    31     8    23    1
    32     8    15    1
    33     2     3    1
    34    36    15    1
    35    15    38    1
    36    15    37    1
    37     3    13    1
    38     3    12    1
    39    32    13    1
    40    30    12    1
    41    13    31    1
    42    13    33    1
    43    12    28    1
    44    12    29    1
@<TRIPOS>MOLECULE
11996452_11_run_19.pdb
 42 44 0 0 0
SMALL
GASTEIGER

@<TRIPOS>ATOM
      1    O      -66.2890  -89.3410   -9.1790 O.3     2  LIG2       -0.3886
      2    C      -69.8380  -89.1230   -6.3200 C.3     2  LIG2       -0.0289
      3    C      -70.6010  -90.2250   -5.6080 C.3     2  LIG2       -0.0284
      4    C      -69.1000  -90.3470   -5.7590 C.3     2  LIG2       -0.0319
      5    C      -69.8530  -88.9220   -7.8580 C.3     2  LIG2       -0.0294
      6    C      -68.4300  -88.5890   -8.3810 C.3     2  LIG2       -0.0090
      7    C      -68.4040  -91.3330   -6.7260 C.3     2  LIG2       -0.0468
      8    C      -70.8030  -87.8140   -8.4010 C.3     2  LIG2       -0.0404
      9    C      -67.5430  -89.8320   -8.7340 C.3     2  LIG2        0.0664
     10    C      -68.6560  -87.5650   -9.5080 C.3     2  LIG2       -0.0471
     11    C      -67.2110  -90.7190   -7.4950 C.3     2  LIG2       -0.0237
     12    C      -71.1340  -89.8890   -4.2020 C.3     2  LIG2       -0.0593
     13    C      -71.5690  -91.1570   -6.3740 C.3     2  LIG2       -0.0593
     14    C      -69.8920  -86.7810   -9.0760 C.3     2  LIG2       -0.0498
     15    C      -71.7730  -87.1810   -7.3810 C.3     2  LIG2       -0.0621
     16    C      -68.0740  -90.7080   -9.8960 C.3     2  LIG2       -0.0358
     17    H      -69.6690  -88.1860   -5.7880 H       2  LIG2        0.0312
     18    H      -68.5220  -90.2310   -4.8400 H       2  LIG2        0.0309
     19    H      -70.1800  -89.8400   -8.3390 H       2  LIG2        0.0310
     20    H      -67.9040  -88.0410   -7.5960 H       2  LIG2        0.0331
     21    H      -68.0240  -92.1590   -6.1260 H       2  LIG2        0.0269
     22    H      -69.0970  -91.7930   -7.4280 H       2  LIG2        0.0269
     23    H      -71.4220  -88.2560   -9.1840 H       2  LIG2        0.0301
     24    H      -67.7960  -86.9070   -9.6400 H       2  LIG2        0.0269
     25    H      -68.8430  -88.0520  -10.4650 H       2  LIG2        0.0269
     26    H      -66.6230  -90.1400   -6.7780 H       2  LIG2        0.0293
     27    H      -66.5590  -91.5370   -7.8080 H       2  LIG2        0.0293
     28    H      -71.2510  -90.7900   -3.6010 H       2  LIG2        0.0235
     29    H      -72.1050  -89.3960   -4.2610 H       2  LIG2        0.0235
     30    H      -70.4650  -89.2200   -3.6580 H       2  LIG2        0.0235
     31    H      -71.7180  -92.0890   -5.8290 H       2  LIG2        0.0235
     32    H      -71.2380  -91.4300   -7.3730 H       2  LIG2        0.0235
     33    H      -72.5450  -90.6830   -6.4880 H       2  LIG2        0.0235
     34    H      -70.3760  -86.3040   -9.9290 H       2  LIG2        0.0268
     35    H      -69.6130  -85.9910   -8.3770 H       2  LIG2        0.0268
     36    H      -71.2440  -86.6550   -6.5850 H       2  LIG2        0.0233
     37    H      -72.4080  -87.9380   -6.9190 H       2  LIG2        0.0233
     38    H      -72.4300  -86.4580   -7.8660 H       2  LIG2        0.0233
     39    H      -69.0420  -91.1560   -9.6760 H       2  LIG2        0.0257
     40    H      -67.3920  -91.5320  -10.1170 H       2  LIG2        0.0257
     41    H      -68.1830  -90.1450  -10.8230 H       2  LIG2        0.0257
     42    H      -65.8520  -88.9090   -8.4410 H       2  LIG2        0.2102
@<TRIPOS>BOND
     1    41    16    1
     2    25    10    1
     3    40    16    1
     4    34    14    1
     5    16    39    1
     6    16     9    1
     7    24    10    1
     8    10    14    1
     9    10     6    1
    10    23     8    1
    11     1     9    1
    12     1    42    1
    13    14     8    1
    14    14    35    1
    15     9     6    1
    16     9    11    1
    17     8     5    1
    18     8    15    1
    19     6     5    1
    20     6    20    1
    21    19     5    1
    22    38    15    1
    23     5     2    1
    24    27    11    1
    25    11    26    1
    26    11     7    1
    27    22     7    1
    28    15    37    1
    29    15    36    1
    30    32    13    1
    31     7    21    1
    32     7     4    1
    33    33    13    1
    34    13    31    1
    35    13     3    1
    36     2    17    1
    37     2     4    1
    38     2     3    1
    39     4     3    1
    40     4    18    1
    41     3    12    1
    42    29    12    1
    43    12    30    1
    44    12    28    1
@<TRIPOS>MOLECULE
11996452_11_run_10.pdb
 42 44 0 0 0
SMALL
GASTEIGER

@<TRIPOS>ATOM
      1    O      -70.5390  -85.7390   -6.6790 O.3     2  LIG2       -0.3886
      2    C      -68.2440  -89.4810   -7.9260 C.3     2  LIG2       -0.0289
      3    C      -68.2340  -90.2400   -9.2400 C.3     2  LIG2       -0.0284
      4    C      -68.3030  -88.7280   -9.2630 C.3     2  LIG2       -0.0319
      5    C      -69.4770  -89.4000   -6.9880 C.3     2  LIG2       -0.0294
      6    C      -69.6510  -87.9610   -6.4330 C.3     2  LIG2       -0.0090
      7    C      -69.5720  -87.9250   -9.6350 C.3     2  LIG2       -0.0468
      8    C      -69.4760  -90.3590   -5.7610 C.3     2  LIG2       -0.0404
      9    C      -70.4980  -86.9980   -7.3320 C.3     2  LIG2        0.0664
     10    C      -70.1380  -88.1550   -4.9860 C.3     2  LIG2       -0.0471
     11    C      -69.8370  -86.7110   -8.7150 C.3     2  LIG2       -0.0237
     12    C      -66.8940  -90.8810   -9.6480 C.3     2  LIG2       -0.0593
     13    C      -69.4370  -91.1120   -9.6730 C.3     2  LIG2       -0.0593
     14    C      -69.4770  -89.4510   -4.5250 C.3     2  LIG2       -0.0498
     15    C      -68.3590  -91.4240   -5.7230 C.3     2  LIG2       -0.0621
     16    C      -71.9800  -87.4090   -7.5190 C.3     2  LIG2       -0.0358
     17    H      -67.3070  -89.3900   -7.3750 H       2  LIG2        0.0312
     18    H      -67.4040  -88.2200   -9.6160 H       2  LIG2        0.0309
     19    H      -70.3730  -89.6520   -7.5480 H       2  LIG2        0.0310
     20    H      -68.6570  -87.5140   -6.3430 H       2  LIG2        0.0331
     21    H      -69.4290  -87.5500  -10.6490 H       2  LIG2        0.0269
     22    H      -70.4620  -88.5480   -9.6900 H       2  LIG2        0.0269
     23    H      -70.4230  -90.9030   -5.7600 H       2  LIG2        0.0301
     24    H      -69.8570  -87.3180   -4.3440 H       2  LIG2        0.0269
     25    H      -71.2220  -88.2550   -4.9350 H       2  LIG2        0.0269
     26    H      -68.8830  -86.2000   -8.5650 H       2  LIG2        0.0293
     27    H      -70.4590  -86.0040   -9.2670 H       2  LIG2        0.0293
     28    H      -66.8280  -90.9990  -10.7290 H       2  LIG2        0.0235
     29    H      -66.7800  -91.8670   -9.1950 H       2  LIG2        0.0235
     30    H      -66.0390  -90.2820   -9.3330 H       2  LIG2        0.0235
     31    H      -69.4370  -91.2550  -10.7540 H       2  LIG2        0.0235
     32    H      -70.4090  -90.7020   -9.4130 H       2  LIG2        0.0235
     33    H      -69.3800  -92.0970   -9.2100 H       2  LIG2        0.0235
     34    H      -70.0190  -89.8970   -3.6900 H       2  LIG2        0.0268
     35    H      -68.4590  -89.2550   -4.1840 H       2  LIG2        0.0268
     36    H      -67.3680  -90.9730   -5.6590 H       2  LIG2        0.0233
     37    H      -68.3850  -92.0540   -6.6130 H       2  LIG2        0.0233
     38    H      -68.4750  -92.0770   -4.8580 H       2  LIG2        0.0233
     39    H      -72.0890  -88.3690   -8.0220 H       2  LIG2        0.0257
     40    H      -72.5230  -86.6780   -8.1210 H       2  LIG2        0.0257
     41    H      -72.5130  -87.4800   -6.5710 H       2  LIG2        0.0257
     42    H      -71.1050  -85.1520   -7.1850 H       2  LIG2        0.2102
@<TRIPOS>BOND
     1    31    13    1
     2    28    12    1
     3    21     7    1
     4    22     7    1
     5    13    32    1
     6    13     3    1
     7    13    33    1
     8    12    30    1
     9    12     3    1
    10    12    29    1
    11     7     4    1
    12     7    11    1
    13    18     4    1
    14    27    11    1
    15     4     3    1
    16     4     2    1
    17     3     2    1
    18    11    26    1
    19    11     9    1
    20    40    16    1
    21    39    16    1
    22     2    17    1
    23     2     5    1
    24    19     5    1
    25    16     9    1
    26    16    41    1
    27     9     1    1
    28     9     6    1
    29    42     1    1
    30     5     6    1
    31     5     8    1
    32    37    15    1
    33     6    20    1
    34     6    10    1
    35     8    23    1
    36     8    15    1
    37     8    14    1
    38    15    36    1
    39    15    38    1
    40    10    25    1
    41    10    14    1
    42    10    24    1
    43    14    35    1
    44    14    34    1
@<TRIPOS>MOLECULE
11996452_11_run_4.pdb
 42 44 0 0 0
SMALL
GASTEIGER

@<TRIPOS>ATOM
      1    O      -70.5390  -85.7080   -6.6790 O.3     2  LIG2       -0.3886
      2    C      -71.2590  -89.0750   -9.6730 C.3     2  LIG2       -0.0289
      3    C      -72.1440  -90.3050   -9.5820 C.3     2  LIG2       -0.0284
      4    C      -72.6370  -88.9970   -9.0010 C.3     2  LIG2       -0.0319
      5    C      -70.0030  -88.8510   -8.7910 C.3     2  LIG2       -0.0294
      6    C      -69.9340  -87.3800   -8.2990 C.3     2  LIG2       -0.0090
      7    C      -72.7350  -88.7050   -7.4850 C.3     2  LIG2       -0.0468
      8    C      -68.6290  -89.1690   -9.4510 C.3     2  LIG2       -0.0404
      9    C      -70.7010  -87.0880   -6.9640 C.3     2  LIG2        0.0664
     10    C      -68.4350  -87.0300   -8.3190 C.3     2  LIG2       -0.0471
     11    C      -72.2420  -87.2950   -7.0850 C.3     2  LIG2       -0.0237
     12    C      -72.7990  -90.7740  -10.8940 C.3     2  LIG2       -0.0593
     13    C      -71.7650  -91.5010   -8.6760 C.3     2  LIG2       -0.0593
     14    C      -67.8640  -87.8400   -9.4800 C.3     2  LIG2       -0.0498
     15    C      -68.6740  -89.8650  -10.8280 C.3     2  LIG2       -0.0621
     16    C      -70.1550  -87.8290   -5.7180 C.3     2  LIG2       -0.0358
     17    H      -71.1760  -88.5700  -10.6360 H       2  LIG2        0.0312
     18    H      -73.4560  -88.5190   -9.5420 H       2  LIG2        0.0309
     19    H      -70.0570  -89.4940   -7.9170 H       2  LIG2        0.0310
     20    H      -70.3880  -86.7480   -9.0660 H       2  LIG2        0.0331
     21    H      -73.7870  -88.7810   -7.2100 H       2  LIG2        0.0269
     22    H      -72.2330  -89.4570   -6.8790 H       2  LIG2        0.0269
     23    H      -68.0830  -89.8390   -8.7840 H       2  LIG2        0.0301
     24    H      -68.2680  -85.9610   -8.4640 H       2  LIG2        0.0269
     25    H      -67.9410  -87.3140   -7.3910 H       2  LIG2        0.0269
     26    H      -72.6490  -86.5890   -7.8120 H       2  LIG2        0.0293
     27    H      -72.7120  -87.0340   -6.1350 H       2  LIG2        0.0293
     28    H      -73.7170  -91.3270  -10.6990 H       2  LIG2        0.0235
     29    H      -72.1270  -91.4250  -11.4550 H       2  LIG2        0.0235
     30    H      -73.0560  -89.9380  -11.5470 H       2  LIG2        0.0235
     31    H      -72.6480  -92.0900   -8.4300 H       2  LIG2        0.0235
     32    H      -71.3020  -91.2240   -7.7320 H       2  LIG2        0.0235
     33    H      -71.0620  -92.1590   -9.1870 H       2  LIG2        0.0235
     34    H      -66.7890  -87.9850   -9.3710 H       2  LIG2        0.0268
     35    H      -68.0280  -87.3160  -10.4230 H       2  LIG2        0.0268
     36    H      -69.1490  -89.2410  -11.5860 H       2  LIG2        0.0233
     37    H      -69.2220  -90.8060  -10.7760 H       2  LIG2        0.0233
     38    H      -67.6680  -90.0930  -11.1810 H       2  LIG2        0.0233
     39    H      -70.2290  -88.9120   -5.8070 H       2  LIG2        0.0257
     40    H      -70.7070  -87.5530   -4.8170 H       2  LIG2        0.0257
     41    H      -69.1090  -87.5930   -5.5210 H       2  LIG2        0.0257
     42    H      -71.0120  -85.2030   -7.3440 H       2  LIG2        0.2102
@<TRIPOS>BOND
     1    36    15    1
     2    30    12    1
     3    29    12    1
     4    38    15    1
     5    12    28    1
     6    12     3    1
     7    15    37    1
     8    15     8    1
     9    17     2    1
    10    35    14    1
    11     2     3    1
    12     2     4    1
    13     2     5    1
    14     3     4    1
    15     3    13    1
    16    18     4    1
    17    14     8    1
    18    14    34    1
    19    14    10    1
    20     8     5    1
    21     8    23    1
    22    33    13    1
    23    20     6    1
    24     4     7    1
    25     5     6    1
    26     5    19    1
    27    13    31    1
    28    13    32    1
    29    24    10    1
    30    10     6    1
    31    10    25    1
    32     6     9    1
    33    26    11    1
    34     7    21    1
    35     7    11    1
    36     7    22    1
    37    42     1    1
    38    11     9    1
    39    11    27    1
    40     9     1    1
    41     9    16    1
    42    39    16    1
    43    16    41    1
    44    16    40    1
@<TRIPOS>MOLECULE
11996452_11_run_5.pdb
 42 44 0 0 0
SMALL
GASTEIGER

@<TRIPOS>ATOM
      1    O      -61.7040  -70.6590  -11.4240 O.3     2  LIG2       -0.3886
      2    C      -59.3950  -70.8050   -7.4920 C.3     2  LIG2       -0.0289
      3    C      -58.1350  -71.5620   -7.1150 C.3     2  LIG2       -0.0284
      4    C      -58.2460  -70.9600   -8.4990 C.3     2  LIG2       -0.0319
      5    C      -60.7470  -71.4920   -7.8170 C.3     2  LIG2       -0.0294
      6    C      -61.4240  -70.8190   -9.0410 C.3     2  LIG2       -0.0090
      7    C      -58.4630  -71.7860   -9.7880 C.3     2  LIG2       -0.0468
      8    C      -61.8040  -71.5130   -6.6740 C.3     2  LIG2       -0.0404
      9    C      -61.0020  -71.3950  -10.4350 C.3     2  LIG2        0.0664
     10    C      -62.9290  -70.8380   -8.7170 C.3     2  LIG2       -0.0471
     11    C      -59.4940  -71.1700  -10.7610 C.3     2  LIG2       -0.0237
     12    C      -57.1870  -70.8610   -6.1240 C.3     2  LIG2       -0.0593
     13    C      -58.1540  -73.0940   -6.8960 C.3     2  LIG2       -0.0593
     14    C      -62.9990  -70.7080   -7.1980 C.3     2  LIG2       -0.0498
     15    C      -61.3230  -71.0380   -5.2860 C.3     2  LIG2       -0.0621
     16    C      -61.3900  -72.8760  -10.6780 C.3     2  LIG2       -0.0358
     17    H      -59.5350  -69.8020   -7.0870 H       2  LIG2        0.0312
     18    H      -57.6020  -70.1000   -8.6920 H       2  LIG2        0.0309
     19    H      -60.5720  -72.5350   -8.0640 H       2  LIG2        0.0310
     20    H      -61.1440  -69.7620   -9.0400 H       2  LIG2        0.0331
     21    H      -57.5040  -71.8330  -10.3050 H       2  LIG2        0.0269
     22    H      -58.7220  -72.8220   -9.5840 H       2  LIG2        0.0269
     23    H      -62.1430  -72.5430   -6.5480 H       2  LIG2        0.0301
     24    H      -63.4630  -70.0230   -9.2090 H       2  LIG2        0.0269
     25    H      -63.3980  -71.7700   -9.0300 H       2  LIG2        0.0269
     26    H      -59.2900  -70.0980  -10.8190 H       2  LIG2        0.0293
     27    H      -59.2840  -71.5570  -11.7600 H       2  LIG2        0.0293
     28    H      -56.1630  -71.2110   -6.2460 H       2  LIG2        0.0235
     29    H      -57.4880  -71.0520   -5.0930 H       2  LIG2        0.0235
     30    H      -57.1780  -69.7780   -6.2610 H       2  LIG2        0.0235
     31    H      -57.1550  -73.5110   -7.0190 H       2  LIG2        0.0235
     32    H      -58.8060  -73.6400   -7.5730 H       2  LIG2        0.0235
     33    H      -58.4870  -73.3310   -5.8850 H       2  LIG2        0.0235
     34    H      -63.9470  -71.0840   -6.8110 H       2  LIG2        0.0268
     35    H      -62.9220  -69.6590   -6.9050 H       2  LIG2        0.0268
     36    H      -61.0210  -69.9900   -5.2940 H       2  LIG2        0.0233
     37    H      -60.4750  -71.6300   -4.9390 H       2  LIG2        0.0233
     38    H      -62.1160  -71.1410   -4.5440 H       2  LIG2        0.0233
     39    H      -60.9060  -73.5560   -9.9780 H       2  LIG2        0.0257
     40    H      -61.1040  -73.2030  -11.6790 H       2  LIG2        0.0257
     41    H      -62.4640  -73.0410  -10.5970 H       2  LIG2        0.0257
     42    H      -61.5660  -71.0830  -12.2740 H       2  LIG2        0.2102
@<TRIPOS>BOND
     1    42     1    1
     2    27    11    1
     3    40    16    1
     4     1     9    1
     5    26    11    1
     6    11     9    1
     7    11     7    1
     8    16    41    1
     9    16     9    1
    10    16    39    1
    11     9     6    1
    12    21     7    1
    13     7    22    1
    14     7     4    1
    15    24    10    1
    16     6    20    1
    17     6    10    1
    18     6     5    1
    19    25    10    1
    20    10    14    1
    21    18     4    1
    22     4     2    1
    23     4     3    1
    24    19     5    1
    25     5     2    1
    26     5     8    1
    27    32    13    1
    28     2     3    1
    29     2    17    1
    30    14    35    1
    31    14    34    1
    32    14     8    1
    33     3    13    1
    34     3    12    1
    35    31    13    1
    36    13    33    1
    37     8    23    1
    38     8    15    1
    39    30    12    1
    40    28    12    1
    41    12    29    1
    42    36    15    1
    43    15    37    1
    44    15    38    1
@<TRIPOS>MOLECULE
11996452_11_run_7.pdb
 42 44 0 0 0
SMALL
GASTEIGER

@<TRIPOS>ATOM
      1    O      -71.4470  -88.9090  -11.0240 O.3     2  LIG2       -0.3886
      2    C      -69.9490  -89.8860   -6.8260 C.3     2  LIG2       -0.0289
      3    C      -70.7120  -90.1200   -5.5350 C.3     2  LIG2       -0.0284
      4    C      -71.2810  -90.6500   -6.8340 C.3     2  LIG2       -0.0319
      5    C      -69.8880  -88.5170   -7.5540 C.3     2  LIG2       -0.0294
      6    C      -70.0350  -88.7050   -9.0880 C.3     2  LIG2       -0.0090
      7    C      -72.5090  -90.0430   -7.5540 C.3     2  LIG2       -0.0468
      8    C      -68.6030  -87.6690   -7.3250 C.3     2  LIG2       -0.0404
      9    C      -71.5080  -88.7190   -9.6200 C.3     2  LIG2        0.0664
     10    C      -69.0930  -87.6540   -9.7030 C.3     2  LIG2       -0.0471
     11    C      -72.3410  -89.9240   -9.0860 C.3     2  LIG2       -0.0237
     12    C      -70.1120  -91.1550   -4.5660 C.3     2  LIG2       -0.0593
     13    C      -71.3840  -88.9510   -4.7760 C.3     2  LIG2       -0.0593
     14    C      -67.9460  -87.5300   -8.7040 C.3     2  LIG2       -0.0498
     15    C      -67.6270  -88.1800   -6.2440 C.3     2  LIG2       -0.0621
     16    C      -72.2890  -87.3950   -9.4210 C.3     2  LIG2       -0.0358
     17    H      -69.0600  -90.4880   -7.0160 H       2  LIG2        0.0312
     18    H      -71.2590  -91.7350   -6.9510 H       2  LIG2        0.0309
     19    H      -70.7090  -87.8920   -7.2140 H       2  LIG2        0.0310
     20    H      -69.5970  -89.6710   -9.3510 H       2  LIG2        0.0331
     21    H      -73.3540  -90.7030   -7.3610 H       2  LIG2        0.0269
     22    H      -72.8050  -89.0820   -7.1400 H       2  LIG2        0.0269
     23    H      -68.9110  -86.6680   -7.0150 H       2  LIG2        0.0301
     24    H      -68.7290  -87.9570  -10.6860 H       2  LIG2        0.0269
     25    H      -69.5860  -86.6900   -9.8220 H       2  LIG2        0.0269
     26    H      -71.8990  -90.8580   -9.4400 H       2  LIG2        0.0293
     27    H      -73.3390  -89.8910   -9.5290 H       2  LIG2        0.0293
     28    H      -70.8830  -91.5900   -3.9300 H       2  LIG2        0.0235
     29    H      -69.3630  -90.6950   -3.9190 H       2  LIG2        0.0235
     30    H      -69.6230  -91.9760   -5.0920 H       2  LIG2        0.0235
     31    H      -72.1790  -89.3200   -4.1290 H       2  LIG2        0.0235
     32    H      -71.8280  -88.1920   -5.4150 H       2  LIG2        0.0235
     33    H      -70.6570  -88.4390   -4.1440 H       2  LIG2        0.0235
     34    H      -67.4250  -86.5780   -8.8150 H       2  LIG2        0.0268
     35    H      -67.2140  -88.3220   -8.8690 H       2  LIG2        0.0268
     36    H      -67.2110  -89.1560   -6.4980 H       2  LIG2        0.0233
     37    H      -68.1210  -88.2670   -5.2760 H       2  LIG2        0.0233
     38    H      -66.7890  -87.4930   -6.1210 H       2  LIG2        0.0233
     39    H      -72.4140  -87.1340   -8.3710 H       2  LIG2        0.0257
     40    H      -73.2930  -87.4570   -9.8470 H       2  LIG2        0.0257
     41    H      -71.8030  -86.5500   -9.9080 H       2  LIG2        0.0257
     42    H      -71.1560  -88.0890  -11.4290 H       2  LIG2        0.2102
@<TRIPOS>BOND
     1    42     1    1
     2     1     9    1
     3    24    10    1
     4    41    16    1
     5    40    16    1
     6    25    10    1
     7    10     6    1
     8    10    14    1
     9     9    16    1
    10     9     6    1
    11     9    11    1
    12    27    11    1
    13    26    11    1
    14    16    39    1
    15    20     6    1
    16     6     5    1
    17    11     7    1
    18    35    14    1
    19    34    14    1
    20    14     8    1
    21     5     8    1
    22     5    19    1
    23     5     2    1
    24     7    21    1
    25     7    22    1
    26     7     4    1
    27     8    23    1
    28     8    15    1
    29    17     2    1
    30    18     4    1
    31     4     2    1
    32     4     3    1
    33     2     3    1
    34    36    15    1
    35    15    38    1
    36    15    37    1
    37     3    13    1
    38     3    12    1
    39    32    13    1
    40    30    12    1
    41    13    33    1
    42    13    31    1
    43    12    28    1
    44    12    29    1
