@<TRIPOS>MOLECULE
11996452_2_run_15.pdb
 42 44 0 0 0
SMALL
GASTEIGER

@<TRIPOS>ATOM
      1    O      -70.8740  -89.4090  -12.5690 O.3     2  LIG2       -0.3886
      2    C      -69.1800  -89.2990   -8.3050 C.3     2  LIG2       -0.0289
      3    C      -68.6700  -87.8750   -8.1690 C.3     2  LIG2       -0.0284
      4    C      -68.0690  -88.7690   -9.2370 C.3     2  LIG2       -0.0319
      5    C      -70.5980  -89.7340   -8.7980 C.3     2  LIG2       -0.0294
      6    C      -71.1150  -89.3800  -10.2150 C.3     2  LIG2       -0.0090
      7    C      -68.3160  -88.5900  -10.7510 C.3     2  LIG2       -0.0468
      8    C      -71.7280  -89.3080   -7.8340 C.3     2  LIG2       -0.0404
      9    C      -70.3900  -90.0810  -11.4170 C.3     2  LIG2        0.0664
     10    C      -72.6320  -89.6330  -10.1050 C.3     2  LIG2       -0.0471
     11    C      -68.8480  -89.8720  -11.4220 C.3     2  LIG2       -0.0237
     12    C      -69.5120  -86.6320   -8.5330 C.3     2  LIG2       -0.0593
     13    C      -67.7900  -87.5950   -6.9350 C.3     2  LIG2       -0.0593
     14    C      -73.0210  -89.2660   -8.6700 C.3     2  LIG2       -0.0498
     15    C      -71.8340  -90.1840   -6.5720 C.3     2  LIG2       -0.0621
     16    C      -70.7060  -91.5850  -11.5980 C.3     2  LIG2       -0.0358
     17    H      -68.8580  -89.9830   -7.5190 H       2  LIG2        0.0312
     18    H      -67.0440  -89.0940   -9.0520 H       2  LIG2        0.0309
     19    H      -70.5750  -90.8250   -8.7840 H       2  LIG2        0.0310
     20    H      -71.0280  -88.3080  -10.3600 H       2  LIG2        0.0331
     21    H      -68.9390  -87.7300  -10.9900 H       2  LIG2        0.0269
     22    H      -67.3520  -88.3610  -11.2050 H       2  LIG2        0.0269
     23    H      -71.5360  -88.2870   -7.5000 H       2  LIG2        0.0301
     24    H      -73.1960  -89.0440  -10.8310 H       2  LIG2        0.0269
     25    H      -72.8810  -90.6790  -10.2790 H       2  LIG2        0.0269
     26    H      -68.4690  -89.9220  -12.4450 H       2  LIG2        0.0293
     27    H      -68.3700  -90.7190  -10.9250 H       2  LIG2        0.0293
     28    H      -68.8620  -85.7800   -8.7340 H       2  LIG2        0.0235
     29    H      -70.1640  -86.3510   -7.7050 H       2  LIG2        0.0235
     30    H      -70.1430  -86.7410   -9.4050 H       2  LIG2        0.0235
     31    H      -67.1190  -86.7550   -7.1130 H       2  LIG2        0.0235
     32    H      -67.1700  -88.4510   -6.6650 H       2  LIG2        0.0235
     33    H      -68.4030  -87.3560   -6.0640 H       2  LIG2        0.0235
     34    H      -73.7890  -89.9420   -8.2910 H       2  LIG2        0.0268
     35    H      -73.4490  -88.2620   -8.6450 H       2  LIG2        0.0268
     36    H      -72.0450  -91.2230   -6.8250 H       2  LIG2        0.0233
     37    H      -72.6330  -89.8330   -5.9170 H       2  LIG2        0.0233
     38    H      -70.9080  -90.1620   -5.9960 H       2  LIG2        0.0233
     39    H      -70.4490  -92.1590  -10.7070 H       2  LIG2        0.0257
     40    H      -70.1410  -92.0110  -12.4290 H       2  LIG2        0.0257
     41    H      -71.7570  -91.7680  -11.8180 H       2  LIG2        0.0257
     42    H      -70.7870  -88.4630  -12.4290 H       2  LIG2        0.2102
@<TRIPOS>BOND
     1     1    42    1
     2     1     9    1
     3    26    11    1
     4    40    16    1
     5    41    16    1
     6    16     9    1
     7    16    39    1
     8    11     9    1
     9    11    27    1
    10    11     7    1
    11     9     6    1
    12    22     7    1
    13    21     7    1
    14    24    10    1
    15     7     4    1
    16    20     6    1
    17    25    10    1
    18     6    10    1
    19     6     5    1
    20    10    14    1
    21    30    12    1
    22     4    18    1
    23     4     2    1
    24     4     3    1
    25     5    19    1
    26     5     2    1
    27     5     8    1
    28    28    12    1
    29    14    35    1
    30    14    34    1
    31    14     8    1
    32    12     3    1
    33    12    29    1
    34     2     3    1
    35     2    17    1
    36     3    13    1
    37     8    23    1
    38     8    15    1
    39    31    13    1
    40    13    32    1
    41    13    33    1
    42    36    15    1
    43    15    38    1
    44    15    37    1
@<TRIPOS>MOLECULE
11996452_2_run_11.pdb
 42 44 0 0 0
SMALL
GASTEIGER

@<TRIPOS>ATOM
      1    O      -66.0780  -89.6590   -9.1790 O.3     2  LIG2       -0.3886
      2    C      -70.0560  -89.9000   -6.9030 C.3     2  LIG2       -0.0289
      3    C      -69.6570  -89.5950   -5.4690 C.3     2  LIG2       -0.0284
      4    C      -69.0600  -90.8110   -6.1530 C.3     2  LIG2       -0.0319
      5    C      -69.6860  -89.0600   -8.1680 C.3     2  LIG2       -0.0294
      6    C      -68.2150  -88.8280   -8.5940 C.3     2  LIG2       -0.0090
      7    C      -67.5840  -90.9150   -6.5960 C.3     2  LIG2       -0.0468
      8    C      -70.3380  -87.6580   -8.1710 C.3     2  LIG2       -0.0404
      9    C      -67.4280  -90.0880   -9.0980 C.3     2  LIG2        0.0664
     10    C      -68.3230  -87.6580   -9.5930 C.3     2  LIG2       -0.0471
     11    C      -67.4360  -91.2720   -8.0880 C.3     2  LIG2       -0.0237
     12    C      -68.7860  -88.3840   -5.0690 C.3     2  LIG2       -0.0593
     13    C      -70.7350  -89.8690   -4.4020 C.3     2  LIG2       -0.0593
     14    C      -69.4750  -86.7790   -9.0960 C.3     2  LIG2       -0.0498
     15    C      -71.8320  -87.6660   -8.5410 C.3     2  LIG2       -0.0621
     16    C      -67.8290  -90.6050  -10.5000 C.3     2  LIG2       -0.0358
     17    H      -71.0650  -90.2960   -7.0280 H       2  LIG2        0.0312
     18    H      -69.4190  -91.7750   -5.7890 H       2  LIG2        0.0309
     19    H      -70.1260  -89.6070   -9.0030 H       2  LIG2        0.0310
     20    H      -67.6690  -88.4160   -7.7510 H       2  LIG2        0.0331
     21    H      -66.9920  -90.0390   -6.3370 H       2  LIG2        0.0269
     22    H      -67.1360  -91.7250   -6.0210 H       2  LIG2        0.0269
     23    H      -70.2580  -87.2330   -7.1690 H       2  LIG2        0.0301
     24    H      -67.3920  -87.0920   -9.6570 H       2  LIG2        0.0269
     25    H      -68.5560  -88.0060  -10.5980 H       2  LIG2        0.0269
     26    H      -66.5390  -91.8800   -8.2210 H       2  LIG2        0.0293
     27    H      -68.2520  -91.9530   -8.3400 H       2  LIG2        0.0293
     28    H      -68.3080  -88.5630   -4.1050 H       2  LIG2        0.0235
     29    H      -69.3970  -87.4870   -4.9630 H       2  LIG2        0.0235
     30    H      -67.9900  -88.1390   -5.7580 H       2  LIG2        0.0235
     31    H      -70.2840  -90.0650   -3.4290 H       2  LIG2        0.0235
     32    H      -71.3540  -90.7320   -4.6510 H       2  LIG2        0.0235
     33    H      -71.4040  -89.0130   -4.2950 H       2  LIG2        0.0235
     34    H      -70.0400  -86.3700   -9.9340 H       2  LIG2        0.0268
     35    H      -69.0800  -85.9280   -8.5400 H       2  LIG2        0.0268
     36    H      -71.9930  -88.0630   -9.5440 H       2  LIG2        0.0233
     37    H      -72.2480  -86.6580   -8.5130 H       2  LIG2        0.0233
     38    H      -72.4090  -88.2770   -7.8450 H       2  LIG2        0.0233
     39    H      -68.8870  -90.8650  -10.5440 H       2  LIG2        0.0257
     40    H      -67.2660  -91.5000  -10.7670 H       2  LIG2        0.0257
     41    H      -67.6350  -89.8760  -11.2870 H       2  LIG2        0.0257
     42    H      -65.8170  -89.3120   -8.3230 H       2  LIG2        0.2102
@<TRIPOS>BOND
     1    41    16    1
     2    40    16    1
     3    25    10    1
     4    39    16    1
     5    16     9    1
     6    34    14    1
     7    24    10    1
     8    10    14    1
     9    10     6    1
    10    36    15    1
    11     1     9    1
    12     1    42    1
    13     9     6    1
    14     9    11    1
    15    14    35    1
    16    14     8    1
    17    19     5    1
    18     6     5    1
    19     6    20    1
    20    15    37    1
    21    15     8    1
    22    15    38    1
    23    27    11    1
    24    26    11    1
    25     8     5    1
    26     8    23    1
    27     5     2    1
    28    11     7    1
    29    17     2    1
    30     2     4    1
    31     2     3    1
    32     7    21    1
    33     7     4    1
    34     7    22    1
    35     4    18    1
    36     4     3    1
    37    30    12    1
    38     3    12    1
    39     3    13    1
    40    12    29    1
    41    12    28    1
    42    32    13    1
    43    13    33    1
    44    13    31    1
@<TRIPOS>MOLECULE
11996452_2_run_16.pdb
 42 44 0 0 0
SMALL
GASTEIGER

@<TRIPOS>ATOM
      1    O      -67.5760  -89.6590  -12.1150 O.3     2  LIG2       -0.3886
      2    C      -69.8690  -88.9900   -8.1960 C.3     2  LIG2       -0.0289
      3    C      -69.8770  -87.4780   -8.0500 C.3     2  LIG2       -0.0284
      4    C      -68.5450  -88.2040   -8.0750 C.3     2  LIG2       -0.0319
      5    C      -70.2870  -89.8030   -9.4630 C.3     2  LIG2       -0.0294
      6    C      -69.5560  -89.6370  -10.8190 C.3     2  LIG2       -0.0090
      7    C      -67.5470  -88.1370   -9.2520 C.3     2  LIG2       -0.0468
      8    C      -71.7920  -89.6720   -9.7930 C.3     2  LIG2       -0.0404
      9    C      -68.0740  -90.1470  -10.8790 C.3     2  LIG2        0.0664
     10    C      -70.5320  -90.2860  -11.8210 C.3     2  LIG2       -0.0471
     11    C      -67.1590  -89.5310   -9.7810 C.3     2  LIG2       -0.0237
     12    C      -70.2960  -86.5170   -9.1850 C.3     2  LIG2       -0.0593
     13    C      -70.3400  -86.9400   -6.6820 C.3     2  LIG2       -0.0593
     14    C      -71.9400  -90.0010  -11.2910 C.3     2  LIG2       -0.0498
     15    C      -72.7050  -90.5120   -8.8810 C.3     2  LIG2       -0.0621
     16    C      -67.9000  -91.6840  -10.8900 C.3     2  LIG2       -0.0358
     17    H      -70.1790  -89.5420   -7.3080 H       2  LIG2        0.0312
     18    H      -68.0140  -88.2360   -7.1230 H       2  LIG2        0.0309
     19    H      -70.1200  -90.8460   -9.1920 H       2  LIG2        0.0310
     20    H      -69.5520  -88.5850  -11.0870 H       2  LIG2        0.0331
     21    H      -67.8720  -87.4820  -10.0590 H       2  LIG2        0.0269
     22    H      -66.6390  -87.6680   -8.8710 H       2  LIG2        0.0269
     23    H      -72.0870  -88.6290   -9.6700 H       2  LIG2        0.0301
     24    H      -70.4010  -89.8890  -12.8300 H       2  LIG2        0.0269
     25    H      -70.3910  -91.3640  -11.8810 H       2  LIG2        0.0269
     26    H      -66.1250  -89.5030  -10.1310 H       2  LIG2        0.0293
     27    H      -67.1250  -90.2050   -8.9230 H       2  LIG2        0.0293
     28    H      -69.8700  -85.5270   -9.0200 H       2  LIG2        0.0235
     29    H      -71.3800  -86.4010   -9.2130 H       2  LIG2        0.0235
     30    H      -69.9890  -86.8140  -10.1790 H       2  LIG2        0.0235
     31    H      -69.9180  -85.9550   -6.4830 H       2  LIG2        0.0235
     32    H      -70.0410  -87.5900   -5.8590 H       2  LIG2        0.0235
     33    H      -71.4270  -86.8520   -6.6440 H       2  LIG2        0.0235
     34    H      -72.6020  -90.8480  -11.4720 H       2  LIG2        0.0268
     35    H      -72.3710  -89.1490  -11.8180 H       2  LIG2        0.0268
     36    H      -72.4810  -91.5760   -8.9640 H       2  LIG2        0.0233
     37    H      -73.7550  -90.3720   -9.1420 H       2  LIG2        0.0233
     38    H      -72.5890  -90.2270   -7.8350 H       2  LIG2        0.0233
     39    H      -68.3490  -92.1450  -10.0090 H       2  LIG2        0.0257
     40    H      -66.8450  -91.9630  -10.8970 H       2  LIG2        0.0257
     41    H      -68.3450  -92.1500  -11.7690 H       2  LIG2        0.0257
     42    H      -66.7890  -90.1590  -12.3440 H       2  LIG2        0.2102
@<TRIPOS>BOND
     1    24    10    1
     2    42     1    1
     3     1     9    1
     4    25    10    1
     5    10    14    1
     6    10     6    1
     7    35    14    1
     8    41    16    1
     9    34    14    1
    10    14     8    1
    11    20     6    1
    12    40    16    1
    13    16     9    1
    14    16    39    1
    15     9     6    1
    16     9    11    1
    17     6     5    1
    18    30    12    1
    19    26    11    1
    20    21     7    1
    21     8    23    1
    22     8     5    1
    23     8    15    1
    24    11     7    1
    25    11    27    1
    26     5    19    1
    27     5     2    1
    28     7    22    1
    29     7     4    1
    30    29    12    1
    31    12    28    1
    32    12     3    1
    33    37    15    1
    34    36    15    1
    35    15    38    1
    36     2     4    1
    37     2     3    1
    38     2    17    1
    39     4     3    1
    40     4    18    1
    41     3    13    1
    42    13    33    1
    43    13    31    1
    44    13    32    1
@<TRIPOS>MOLECULE
11996452_2_run_17.pdb
 42 44 0 0 0
SMALL
GASTEIGER

@<TRIPOS>ATOM
      1    O      -66.7890  -89.4090   -7.5060 O.3     2  LIG2       -0.3886
      2    C      -71.0810  -87.8070   -7.7910 C.3     2  LIG2       -0.0289
      3    C      -71.5310  -88.2600   -9.1680 C.3     2  LIG2       -0.0284
      4    C      -70.3420  -87.3250   -9.0580 C.3     2  LIG2       -0.0319
      5    C      -70.4260  -88.7000   -6.6880 C.3     2  LIG2       -0.0294
      6    C      -69.0820  -89.4340   -6.9200 C.3     2  LIG2       -0.0090
      7    C      -68.8830  -87.7460   -9.3400 C.3     2  LIG2       -0.0468
      8    C      -71.3880  -89.7770   -6.1360 C.3     2  LIG2       -0.0404
      9    C      -67.8090  -88.5280   -7.0600 C.3     2  LIG2        0.0664
     10    C      -69.0490  -90.4690   -5.7790 C.3     2  LIG2       -0.0471
     11    C      -67.9380  -87.4380   -8.1630 C.3     2  LIG2       -0.0237
     12    C      -71.3760  -89.7100   -9.6800 C.3     2  LIG2       -0.0593
     13    C      -72.8460  -87.6400   -9.6790 C.3     2  LIG2       -0.0593
     14    C      -70.5030  -90.8890   -5.5420 C.3     2  LIG2       -0.0498
     15    C      -72.4390  -89.2300   -5.1530 C.3     2  LIG2       -0.0621
     16    C      -67.3100  -87.8770   -5.7490 C.3     2  LIG2       -0.0358
     17    H      -71.7300  -87.0750   -7.3090 H       2  LIG2        0.0312
     18    H      -70.5180  -86.3030   -9.3980 H       2  LIG2        0.0309
     19    H      -70.2220  -88.0170   -5.8620 H       2  LIG2        0.0310
     20    H      -69.1620  -90.0290   -7.8250 H       2  LIG2        0.0331
     21    H      -68.7860  -88.7800   -9.6670 H       2  LIG2        0.0269
     22    H      -68.5430  -87.1590  -10.1940 H       2  LIG2        0.0269
     23    H      -71.9320  -90.2210   -6.9720 H       2  LIG2        0.0301
     24    H      -68.4250  -91.3290   -6.0280 H       2  LIG2        0.0269
     25    H      -68.6530  -90.0430   -4.8580 H       2  LIG2        0.0269
     26    H      -66.9500  -87.1870   -8.5560 H       2  LIG2        0.0293
     27    H      -68.2810  -86.5070   -7.7080 H       2  LIG2        0.0293
     28    H      -71.3890  -89.7300  -10.7690 H       2  LIG2        0.0235
     29    H      -72.2030  -90.3310   -9.3360 H       2  LIG2        0.0235
     30    H      -70.4640  -90.2090   -9.3810 H       2  LIG2        0.0235
     31    H      -72.8820  -87.6350  -10.7690 H       2  LIG2        0.0235
     32    H      -72.9740  -86.6080   -9.3490 H       2  LIG2        0.0235
     33    H      -73.7090  -88.2020   -9.3190 H       2  LIG2        0.0235
     34    H      -70.6910  -91.0540   -4.4810 H       2  LIG2        0.0268
     35    H      -70.7040  -91.8350   -6.0470 H       2  LIG2        0.0268
     36    H      -71.9690  -88.7840   -4.2760 H       2  LIG2        0.0233
     37    H      -73.1020  -90.0230   -4.8060 H       2  LIG2        0.0233
     38    H      -73.0610  -88.4670   -5.6230 H       2  LIG2        0.0233
     39    H      -68.0800  -87.2550   -5.2910 H       2  LIG2        0.0257
     40    H      -66.4450  -87.2360   -5.9290 H       2  LIG2        0.0257
     41    H      -66.9950  -88.6120   -5.0090 H       2  LIG2        0.0257
     42    H      -65.9440  -88.9590   -7.4300 H       2  LIG2        0.2102
@<TRIPOS>BOND
     1    31    13    1
     2    28    12    1
     3    22     7    1
     4    12    30    1
     5    12    29    1
     6    12     3    1
     7    13    32    1
     8    13    33    1
     9    13     3    1
    10    21     7    1
    11    18     4    1
    12     7     4    1
    13     7    11    1
    14     3     4    1
    15     3     2    1
    16     4     2    1
    17    26    11    1
    18    11    27    1
    19    11     9    1
    20    20     6    1
    21     2    17    1
    22     2     5    1
    23     1    42    1
    24     1     9    1
    25     9     6    1
    26     9    16    1
    27    23     8    1
    28     6     5    1
    29     6    10    1
    30     5     8    1
    31     5    19    1
    32     8    14    1
    33     8    15    1
    34    35    14    1
    35    24    10    1
    36    40    16    1
    37    10    14    1
    38    10    25    1
    39    16    39    1
    40    16    41    1
    41    38    15    1
    42    14    34    1
    43    15    37    1
    44    15    36    1
@<TRIPOS>MOLECULE
11996452_2_run_3.pdb
 42 44 0 0 0
SMALL
GASTEIGER

@<TRIPOS>ATOM
      1    O      -61.2540  -77.0030  -14.8860 O.3     2  LIG2       -0.3886
      2    C      -63.2060  -80.7710  -13.1370 C.3     2  LIG2       -0.0289
      3    C      -62.8710  -81.8440  -14.1580 C.3     2  LIG2       -0.0284
      4    C      -63.7010  -80.6510  -14.5950 C.3     2  LIG2       -0.0319
      5    C      -62.2000  -79.7750  -12.4730 C.3     2  LIG2       -0.0294
      6    C      -61.3770  -78.7650  -13.3100 C.3     2  LIG2       -0.0090
      7    C      -63.1820  -79.5320  -15.5240 C.3     2  LIG2       -0.0468
      8    C      -61.1720  -80.4780  -11.5570 C.3     2  LIG2       -0.0404
      9    C      -62.1850  -77.6150  -14.0070 C.3     2  LIG2        0.0664
     10    C      -60.2770  -78.3140  -12.3280 C.3     2  LIG2       -0.0471
     11    C      -63.3450  -78.1280  -14.9100 C.3     2  LIG2       -0.0237
     12    C      -61.4460  -82.0820  -14.7060 C.3     2  LIG2       -0.0593
     13    C      -63.6220  -83.1800  -13.9960 C.3     2  LIG2       -0.0593
     14    C      -59.9610  -79.5320  -11.4550 C.3     2  LIG2       -0.0498
     15    C      -61.7430  -80.9040  -10.1920 C.3     2  LIG2       -0.0621
     16    C      -62.7170  -76.5110  -13.0630 C.3     2  LIG2       -0.0358
     17    H      -63.9570  -81.0540  -12.3990 H       2  LIG2        0.0312
     18    H      -64.7510  -80.8630  -14.7990 H       2  LIG2        0.0309
     19    H      -62.8150  -79.1500  -11.8240 H       2  LIG2        0.0310
     20    H      -60.8440  -79.3070  -14.0850 H       2  LIG2        0.0331
     21    H      -62.1650  -79.6960  -15.8740 H       2  LIG2        0.0269
     22    H      -63.7890  -79.5640  -16.4290 H       2  LIG2        0.0269
     23    H      -60.8230  -81.3840  -12.0550 H       2  LIG2        0.0301
     24    H      -59.3860  -77.9600  -12.8510 H       2  LIG2        0.0269
     25    H      -60.6160  -77.5020  -11.6870 H       2  LIG2        0.0269
     26    H      -63.5390  -77.4100  -15.7100 H       2  LIG2        0.0293
     27    H      -64.2720  -78.1320  -14.3330 H       2  LIG2        0.0293
     28    H      -61.4900  -82.5940  -15.6670 H       2  LIG2        0.0235
     29    H      -60.8730  -82.7160  -14.0290 H       2  LIG2        0.0235
     30    H      -60.8580  -81.1880  -14.8690 H       2  LIG2        0.0235
     31    H      -63.6940  -83.7090  -14.9470 H       2  LIG2        0.0235
     32    H      -64.6400  -83.0410  -13.6280 H       2  LIG2        0.0235
     33    H      -63.1100  -83.8320  -13.2870 H       2  LIG2        0.0235
     34    H      -59.7490  -79.2300  -10.4290 H       2  LIG2        0.0268
     35    H      -59.0650  -80.0330  -11.8240 H       2  LIG2        0.0268
     36    H      -62.0990  -80.0440   -9.6230 H       2  LIG2        0.0233
     37    H      -60.9860  -81.4090   -9.5910 H       2  LIG2        0.0233
     38    H      -62.5790  -81.5940  -10.3100 H       2  LIG2        0.0233
     39    H      -63.3700  -76.9220  -12.2930 H       2  LIG2        0.0257
     40    H      -63.2970  -75.7670  -13.6120 H       2  LIG2        0.0257
     41    H      -61.9170  -75.9660  -12.5630 H       2  LIG2        0.0257
     42    H      -61.6750  -76.2440  -15.2950 H       2  LIG2        0.2102
@<TRIPOS>BOND
     1    22     7    1
     2    21     7    1
     3    26    11    1
     4    28    12    1
     5     7    11    1
     6     7     4    1
     7    42     1    1
     8    31    13    1
     9    11    27    1
    10    11     9    1
    11     1     9    1
    12    30    12    1
    13    18     4    1
    14    12     3    1
    15    12    29    1
    16     4     3    1
    17     4     2    1
    18     3    13    1
    19     3     2    1
    20    20     6    1
    21     9     6    1
    22     9    16    1
    23    13    32    1
    24    13    33    1
    25    40    16    1
    26     6     5    1
    27     6    10    1
    28     2     5    1
    29     2    17    1
    30    16    41    1
    31    16    39    1
    32    24    10    1
    33     5    19    1
    34     5     8    1
    35    10    25    1
    36    10    14    1
    37    23     8    1
    38    35    14    1
    39     8    14    1
    40     8    15    1
    41    14    34    1
    42    38    15    1
    43    15    36    1
    44    15    37    1
@<TRIPOS>MOLECULE
11996452_2_run_6.pdb
 42 44 0 0 0
SMALL
GASTEIGER

@<TRIPOS>ATOM
      1    O      -69.0390  -88.1540  -11.1790 O.3     2  LIG2       -0.3886
      2    C      -69.0770  -90.0960   -7.0200 C.3     2  LIG2       -0.0289
      3    C      -67.9860  -89.3470   -6.2750 C.3     2  LIG2       -0.0284
      4    C      -67.6150  -90.1380   -7.5160 C.3     2  LIG2       -0.0319
      5    C      -70.2540  -89.4590   -7.8290 C.3     2  LIG2       -0.0294
      6    C      -70.0040  -88.5440   -9.0530 C.3     2  LIG2       -0.0090
      7    C      -67.2100  -89.4950   -8.8610 C.3     2  LIG2       -0.0468
      8    C      -71.2480  -88.6820   -6.9350 C.3     2  LIG2       -0.0404
      9    C      -69.3910  -89.2300  -10.3240 C.3     2  LIG2        0.0664
     10    C      -71.3660  -87.8510   -9.2540 C.3     2  LIG2       -0.0471
     11    C      -68.0660  -89.9960  -10.0400 C.3     2  LIG2       -0.0237
     12    C      -67.8850  -87.8060   -6.2390 C.3     2  LIG2       -0.0593
     13    C      -67.5610  -89.9540   -4.9240 C.3     2  LIG2       -0.0593
     14    C      -71.9650  -87.6760   -7.8550 C.3     2  LIG2       -0.0498
     15    C      -72.2070  -89.5860   -6.1380 C.3     2  LIG2       -0.0621
     16    C      -70.3560  -90.1460  -11.1140 C.3     2  LIG2       -0.0358
     17    H      -69.4400  -90.9980   -6.5260 H       2  LIG2        0.0312
     18    H      -67.0380  -91.0460   -7.3360 H       2  LIG2        0.0309
     19    H      -70.8040  -90.3100   -8.2350 H       2  LIG2        0.0310
     20    H      -69.3330  -87.7430   -8.7580 H       2  LIG2        0.0331
     21    H      -67.1770  -88.4080   -8.8290 H       2  LIG2        0.0269
     22    H      -66.1800  -89.7930   -9.0570 H       2  LIG2        0.0269
     23    H      -70.6810  -88.0970   -6.2100 H       2  LIG2        0.0301
     24    H      -71.2630  -86.8920   -9.7630 H       2  LIG2        0.0269
     25    H      -72.0440  -88.4590   -9.8510 H       2  LIG2        0.0269
     26    H      -67.4510  -90.0210  -10.9420 H       2  LIG2        0.0293
     27    H      -68.2940  -91.0480   -9.8520 H       2  LIG2        0.0293
     28    H      -66.8660  -87.4980   -6.0050 H       2  LIG2        0.0235
     29    H      -68.5310  -87.3950   -5.4620 H       2  LIG2        0.0235
     30    H      -68.1470  -87.3040   -7.1610 H       2  LIG2        0.0235
     31    H      -66.5390  -89.6730   -4.6700 H       2  LIG2        0.0235
     32    H      -67.6050  -91.0430   -4.9270 H       2  LIG2        0.0235
     33    H      -68.2130  -89.6080   -4.1190 H       2  LIG2        0.0235
     34    H      -73.0460  -87.8210   -7.8740 H       2  LIG2        0.0268
     35    H      -71.7920  -86.6590   -7.5000 H       2  LIG2        0.0268
     36    H      -72.8250  -90.1930   -6.8000 H       2  LIG2        0.0233
     37    H      -72.8740  -88.9930   -5.5130 H       2  LIG2        0.0233
     38    H      -71.6580  -90.2620   -5.4810 H       2  LIG2        0.0233
     39    H      -70.7490  -90.9490  -10.4900 H       2  LIG2        0.0257
     40    H      -69.8520  -90.6150  -11.9610 H       2  LIG2        0.0257
     41    H      -71.2050  -89.6030  -11.5270 H       2  LIG2        0.0257
     42    H      -69.8440  -87.7180  -11.4660 H       2  LIG2        0.2102
@<TRIPOS>BOND
     1    40    16    1
     2    41    16    1
     3    42     1    1
     4     1     9    1
     5    16    39    1
     6    16     9    1
     7    26    11    1
     8     9    11    1
     9     9     6    1
    10    11    27    1
    11    11     7    1
    12    25    10    1
    13    24    10    1
    14    10     6    1
    15    10    14    1
    16    22     7    1
    17     6    20    1
    18     6     5    1
    19     7    21    1
    20     7     4    1
    21    19     5    1
    22    34    14    1
    23    14    35    1
    24    14     8    1
    25     5     2    1
    26     5     8    1
    27     4    18    1
    28     4     2    1
    29     4     3    1
    30    30    12    1
    31     2    17    1
    32     2     3    1
    33     8    23    1
    34     8    15    1
    35    36    15    1
    36     3    12    1
    37     3    13    1
    38    12    28    1
    39    12    29    1
    40    15    37    1
    41    15    38    1
    42    32    13    1
    43    13    31    1
    44    13    33    1
@<TRIPOS>MOLECULE
11996452_2_run_14.pdb
 42 44 0 0 0
SMALL
GASTEIGER

@<TRIPOS>ATOM
      1    O      -71.5980  -86.6590   -7.9730 O.3     2  LIG2       -0.3886
      2    C      -68.2100  -89.4170   -6.5670 C.3     2  LIG2       -0.0289
      3    C      -68.8990  -90.3390   -5.5770 C.3     2  LIG2       -0.0284
      4    C      -68.8770  -88.8490   -5.2950 C.3     2  LIG2       -0.0319
      5    C      -68.6860  -89.0920   -8.0190 C.3     2  LIG2       -0.0294
      6    C      -70.0540  -88.4230   -8.3010 C.3     2  LIG2       -0.0090
      7    C      -70.1180  -87.9340   -5.3850 C.3     2  LIG2       -0.0468
      8    C      -68.6310  -90.3180   -8.9600 C.3     2  LIG2       -0.0404
      9    C      -70.2140  -86.9360   -7.8270 C.3     2  LIG2        0.0664
     10    C      -70.2600  -88.6740   -9.8080 C.3     2  LIG2       -0.0471
     11    C      -69.8990  -86.7260   -6.3170 C.3     2  LIG2       -0.0237
     12    C      -70.2170  -91.0850   -5.8850 C.3     2  LIG2       -0.0593
     13    C      -67.9660  -91.2140   -4.7160 C.3     2  LIG2       -0.0593
     14    C      -69.6210  -90.0330  -10.1050 C.3     2  LIG2       -0.0498
     15    C      -67.2110  -90.6710   -9.4410 C.3     2  LIG2       -0.0621
     16    C      -69.4460  -85.8850   -8.6630 C.3     2  LIG2       -0.0358
     17    H      -67.1200  -89.4580   -6.5560 H       2  LIG2        0.0312
     18    H      -68.2310  -88.5390   -4.4710 H       2  LIG2        0.0309
     19    H      -67.9530  -88.3780   -8.3990 H       2  LIG2        0.0310
     20    H      -70.8330  -89.0060   -7.8200 H       2  LIG2        0.0331
     21    H      -71.0320  -88.4680   -5.6370 H       2  LIG2        0.0269
     22    H      -70.2980  -87.5440   -4.3830 H       2  LIG2        0.0269
     23    H      -69.0120  -91.1870   -8.4230 H       2  LIG2        0.0301
     24    H      -71.3170  -88.6660  -10.0800 H       2  LIG2        0.0269
     25    H      -69.7680  -87.9150  -10.4150 H       2  LIG2        0.0269
     26    H      -70.4630  -85.8740   -5.9340 H       2  LIG2        0.0293
     27    H      -68.8560  -86.4180   -6.2080 H       2  LIG2        0.0293
     28    H      -70.7240  -91.3560   -4.9580 H       2  LIG2        0.0235
     29    H      -70.0200  -92.0100   -6.4270 H       2  LIG2        0.0235
     30    H      -70.9370  -90.5270   -6.4690 H       2  LIG2        0.0235
     31    H      -68.4430  -91.4910   -3.7760 H       2  LIG2        0.0235
     32    H      -67.0340  -90.7050   -4.4680 H       2  LIG2        0.0235
     33    H      -67.7010  -92.1340   -5.2400 H       2  LIG2        0.0235
     34    H      -69.1410  -90.0310  -11.0840 H       2  LIG2        0.0268
     35    H      -70.3890  -90.8080  -10.1340 H       2  LIG2        0.0268
     36    H      -66.7670  -89.8510  -10.0060 H       2  LIG2        0.0233
     37    H      -67.2240  -91.5500  -10.0860 H       2  LIG2        0.0233
     38    H      -66.5520  -90.8920   -8.6000 H       2  LIG2        0.0233
     39    H      -68.3750  -86.0890   -8.6790 H       2  LIG2        0.0257
     40    H      -69.5760  -84.8820   -8.2550 H       2  LIG2        0.0257
     41    H      -69.7890  -85.8400   -9.6970 H       2  LIG2        0.0257
     42    H      -71.7250  -85.7080   -7.9290 H       2  LIG2        0.2102
@<TRIPOS>BOND
     1    34    14    1
     2    25    10    1
     3    35    14    1
     4    14    10    1
     5    14     8    1
     6    37    15    1
     7    24    10    1
     8    36    15    1
     9    10     6    1
    10    41    16    1
    11    15     8    1
    12    15    38    1
    13     8    23    1
    14     8     5    1
    15    39    16    1
    16    16    40    1
    17    16     9    1
    18    19     5    1
    19     6     5    1
    20     6     9    1
    21     6    20    1
    22     5     2    1
    23     1    42    1
    24     1     9    1
    25     9    11    1
    26     2    17    1
    27     2     3    1
    28     2     4    1
    29    30    12    1
    30    29    12    1
    31    11    27    1
    32    11    26    1
    33    11     7    1
    34    12     3    1
    35    12    28    1
    36    21     7    1
    37     3     4    1
    38     3    13    1
    39     7     4    1
    40     7    22    1
    41     4    18    1
    42    33    13    1
    43    13    32    1
    44    13    31    1
@<TRIPOS>MOLECULE
11996452_2_run_19.pdb
 42 44 0 0 0
SMALL
GASTEIGER

@<TRIPOS>ATOM
      1    O      -66.0770  -89.7130   -8.9290 O.3     2  LIG2       -0.3886
      2    C      -70.4700  -88.9090   -7.8690 C.3     2  LIG2       -0.0289
      3    C      -70.5020  -87.4100   -7.6300 C.3     2  LIG2       -0.0284
      4    C      -69.6190  -88.2730   -6.7480 C.3     2  LIG2       -0.0319
      5    C      -69.8660  -89.6380   -9.1130 C.3     2  LIG2       -0.0294
      6    C      -68.3680  -89.5140   -9.4870 C.3     2  LIG2       -0.0090
      7    C      -68.0760  -88.2810   -6.8150 C.3     2  LIG2       -0.0468
      8    C      -70.6380  -89.3380  -10.4190 C.3     2  LIG2       -0.0404
      9    C      -67.3470  -90.1780   -8.4990 C.3     2  LIG2        0.0664
     10    C      -68.3290  -90.0280  -10.9400 C.3     2  LIG2       -0.0471
     11    C      -67.4980  -89.6940   -7.0270 C.3     2  LIG2       -0.0237
     12    C      -69.9030  -86.3790   -8.6130 C.3     2  LIG2       -0.0593
     13    C      -71.7900  -86.8630   -6.9840 C.3     2  LIG2       -0.0593
     14    C      -69.6570  -89.6080  -11.5760 C.3     2  LIG2       -0.0498
     15    C      -71.9700  -90.1000  -10.5450 C.3     2  LIG2       -0.0621
     16    C      -67.3020  -91.7250   -8.5290 C.3     2  LIG2       -0.0358
     17    H      -71.3600  -89.4490   -7.5450 H       2  LIG2        0.0312
     18    H      -69.9580  -88.3880   -5.7180 H       2  LIG2        0.0309
     19    H      -70.0070  -90.7000   -8.9090 H       2  LIG2        0.0310
     20    H      -68.1130  -88.4620   -9.5630 H       2  LIG2        0.0331
     21    H      -67.6700  -87.5740   -7.5360 H       2  LIG2        0.0269
     22    H      -67.7150  -87.9220   -5.8510 H       2  LIG2        0.0269
     23    H      -70.8740  -88.2730  -10.4490 H       2  LIG2        0.0301
     24    H      -67.4800  -89.6200  -11.4920 H       2  LIG2        0.0269
     25    H      -68.2470  -91.1130  -10.9830 H       2  LIG2        0.0269
     26    H      -66.5390  -89.7670   -6.5110 H       2  LIG2        0.0293
     27    H      -68.1400  -90.3910   -6.4850 H       2  LIG2        0.0293
     28    H      -69.6830  -85.4450   -8.0940 H       2  LIG2        0.0235
     29    H      -70.6110  -86.1470   -9.4080 H       2  LIG2        0.0235
     30    H      -68.9810  -86.6800   -9.0930 H       2  LIG2        0.0235
     31    H      -71.5970  -85.9340   -6.4470 H       2  LIG2        0.0235
     32    H      -72.2250  -87.5630   -6.2710 H       2  LIG2        0.0235
     33    H      -72.5500  -86.6600   -7.7410 H       2  LIG2        0.0235
     34    H      -70.0190  -90.3750  -12.2620 H       2  LIG2        0.0268
     35    H      -69.5180  -88.7010  -12.1660 H       2  LIG2        0.0268
     36    H      -71.8140  -91.1790  -10.5410 H       2  LIG2        0.0233
     37    H      -72.4830  -89.8420  -11.4720 H       2  LIG2        0.0233
     38    H      -72.6440  -89.8570   -9.7220 H       2  LIG2        0.0233
     39    H      -68.2760  -92.1590   -8.3010 H       2  LIG2        0.0257
     40    H      -66.5970  -92.1150   -7.7930 H       2  LIG2        0.0257
     41    H      -66.9830  -92.1160   -9.4940 H       2  LIG2        0.0257
     42    H      -65.7960  -89.0070   -8.3420 H       2  LIG2        0.2102
@<TRIPOS>BOND
     1    34    14    1
     2    35    14    1
     3    14    10    1
     4    14     8    1
     5    24    10    1
     6    37    15    1
     7    25    10    1
     8    10     6    1
     9    15    36    1
    10    15     8    1
    11    15    38    1
    12    23     8    1
    13     8     5    1
    14    20     6    1
    15    41    16    1
    16     6     5    1
    17     6     9    1
    18    29    12    1
    19     5    19    1
    20     5     2    1
    21    30    12    1
    22     1     9    1
    23     1    42    1
    24    12    28    1
    25    12     3    1
    26    16     9    1
    27    16    39    1
    28    16    40    1
    29     9    11    1
    30     2     3    1
    31     2    17    1
    32     2     4    1
    33    33    13    1
    34     3    13    1
    35     3     4    1
    36    21     7    1
    37    11     7    1
    38    11    26    1
    39    11    27    1
    40    13    31    1
    41    13    32    1
    42     7     4    1
    43     7    22    1
    44     4    18    1
@<TRIPOS>MOLECULE
11996452_2_run_9.pdb
 42 44 0 0 0
SMALL
GASTEIGER

@<TRIPOS>ATOM
      1    O      -70.0390  -85.6750   -7.1550 O.3     2  LIG2       -0.3886
      2    C      -69.2330  -90.1060   -8.0390 C.3     2  LIG2       -0.0289
      3    C      -68.3200  -90.0590   -9.2520 C.3     2  LIG2       -0.0284
      4    C      -69.7130  -89.4690   -9.3620 C.3     2  LIG2       -0.0319
      5    C      -69.0480  -89.3110   -6.7060 C.3     2  LIG2       -0.0294
      6    C      -69.0320  -87.7620   -6.6740 C.3     2  LIG2       -0.0090
      7    C      -70.0060  -87.9560   -9.4590 C.3     2  LIG2       -0.0468
      8    C      -67.7950  -89.7480   -5.9130 C.3     2  LIG2       -0.0404
      9    C      -70.3850  -87.0440   -7.0120 C.3     2  LIG2        0.0664
     10    C      -68.4330  -87.4500   -5.2880 C.3     2  LIG2       -0.0471
     11    C      -70.9920  -87.4710   -8.3790 C.3     2  LIG2       -0.0237
     12    C      -67.0570  -89.1720   -9.3320 C.3     2  LIG2       -0.0593
     13    C      -68.0860  -91.4050   -9.9660 C.3     2  LIG2       -0.0593
     14    C      -67.4230  -88.5650   -4.9990 C.3     2  LIG2       -0.0498
     15    C      -67.9660  -91.0810   -5.1620 C.3     2  LIG2       -0.0621
     16    C      -71.4740  -87.1290   -5.9160 C.3     2  LIG2       -0.0358
     17    H      -69.6420  -91.0900   -7.8060 H       2  LIG2        0.0312
     18    H      -70.4120  -90.0350   -9.9800 H       2  LIG2        0.0309
     19    H      -69.9100  -89.5850   -6.0970 H       2  LIG2        0.0310
     20    H      -68.2870  -87.4060   -7.3780 H       2  LIG2        0.0331
     21    H      -69.1070  -87.3420   -9.4800 H       2  LIG2        0.0269
     22    H      -70.4740  -87.7850  -10.4290 H       2  LIG2        0.0269
     23    H      -66.9670  -89.8780   -6.6120 H       2  LIG2        0.0301
     24    H      -67.9560  -86.4680   -5.2630 H       2  LIG2        0.0269
     25    H      -69.1930  -87.4550   -4.5080 H       2  LIG2        0.0269
     26    H      -71.5970  -86.6590   -8.7880 H       2  LIG2        0.0293
     27    H      -71.7130  -88.2750   -8.2150 H       2  LIG2        0.0293
     28    H      -66.7870  -88.9900  -10.3720 H       2  LIG2        0.0235
     29    H      -66.2080  -89.6650   -8.8600 H       2  LIG2        0.0235
     30    H      -67.1480  -88.1970   -8.8710 H       2  LIG2        0.0235
     31    H      -67.8270  -91.2550  -11.0140 H       2  LIG2        0.0235
     32    H      -68.9680  -92.0450   -9.9410 H       2  LIG2        0.0235
     33    H      -67.2720  -91.9600   -9.4960 H       2  LIG2        0.0235
     34    H      -67.4320  -88.8320   -3.9420 H       2  LIG2        0.0268
     35    H      -66.4130  -88.2210   -5.2270 H       2  LIG2        0.0268
     36    H      -68.7700  -91.0240   -4.4280 H       2  LIG2        0.0233
     37    H      -67.0520  -91.3530   -4.6340 H       2  LIG2        0.0233
     38    H      -68.2000  -91.8950   -5.8500 H       2  LIG2        0.0233
     39    H      -71.7260  -88.1630   -5.6790 H       2  LIG2        0.0257
     40    H      -72.3950  -86.6380   -6.2350 H       2  LIG2        0.0257
     41    H      -71.1740  -86.6410   -4.9890 H       2  LIG2        0.0257
     42    H      -70.8210  -85.1900   -7.4290 H       2  LIG2        0.2102
@<TRIPOS>BOND
     1    31    13    1
     2    22     7    1
     3    28    12    1
     4    18     4    1
     5    13    32    1
     6    13    33    1
     7    13     3    1
     8    21     7    1
     9     7     4    1
    10     7    11    1
    11     4     3    1
    12     4     2    1
    13    12     3    1
    14    12    30    1
    15    12    29    1
    16     3     2    1
    17    26    11    1
    18    11    27    1
    19    11     9    1
    20     2    17    1
    21     2     5    1
    22    42     1    1
    23    20     6    1
    24     1     9    1
    25     9     6    1
    26     9    16    1
    27     5     6    1
    28     5    19    1
    29     5     8    1
    30     6    10    1
    31    23     8    1
    32    40    16    1
    33    16    39    1
    34    16    41    1
    35     8    15    1
    36     8    14    1
    37    38    15    1
    38    10    24    1
    39    10    14    1
    40    10    25    1
    41    35    14    1
    42    15    37    1
    43    15    36    1
    44    14    34    1
@<TRIPOS>MOLECULE
11996452_2_run_3.pdb
 42 44 0 0 0
SMALL
GASTEIGER

@<TRIPOS>ATOM
      1    O      -64.5390  -81.4350  -14.0280 O.3     2  LIG2       -0.3886
      2    C      -61.2860  -78.1990  -13.9070 C.3     2  LIG2       -0.0289
      3    C      -62.0730  -76.9220  -13.6720 C.3     2  LIG2       -0.0284
      4    C      -62.3430  -77.7280  -14.9290 C.3     2  LIG2       -0.0319
      5    C      -61.3990  -79.5240  -13.0850 C.3     2  LIG2       -0.0294
      6    C      -62.7240  -80.3200  -12.9950 C.3     2  LIG2       -0.0090
      7    C      -63.6340  -78.5390  -15.1740 C.3     2  LIG2       -0.0468
      8    C      -60.9170  -79.3690  -11.6240 C.3     2  LIG2       -0.0404
      9    C      -63.2190  -81.0010  -14.3190 C.3     2  LIG2        0.0664
     10    C      -62.4820  -81.2660  -11.8020 C.3     2  LIG2       -0.0471
     11    C      -63.3520  -80.0150  -15.5160 C.3     2  LIG2       -0.0237
     12    C      -63.1380  -76.7710  -12.5630 C.3     2  LIG2       -0.0593
     13    C      -61.2870  -75.6090  -13.8550 C.3     2  LIG2       -0.0593
     14    C      -61.5960  -80.4940  -10.8200 C.3     2  LIG2       -0.0498
     15    C      -59.3850  -79.3370  -11.4730 C.3     2  LIG2       -0.0621
     16    C      -62.4160  -82.2470  -14.7660 C.3     2  LIG2       -0.0358
     17    H      -60.2440  -78.0540  -14.1960 H       2  LIG2        0.0312
     18    H      -61.9930  -77.2750  -15.8580 H       2  LIG2        0.0309
     19    H      -60.7030  -80.2110  -13.5680 H       2  LIG2        0.0310
     20    H      -63.5100  -79.6520  -12.6570 H       2  LIG2        0.0331
     21    H      -64.3600  -78.4500  -14.3680 H       2  LIG2        0.0269
     22    H      -64.1300  -78.0940  -16.0370 H       2  LIG2        0.0269
     23    H      -61.2980  -78.4260  -11.2290 H       2  LIG2        0.0301
     24    H      -63.4180  -81.5750  -11.3320 H       2  LIG2        0.0269
     25    H      -61.9620  -82.1730  -12.1050 H       2  LIG2        0.0269
     26    H      -64.1160  -80.3720  -16.2090 H       2  LIG2        0.0293
     27    H      -62.4330  -80.0410  -16.1050 H       2  LIG2        0.0293
     28    H      -63.8290  -75.9640  -12.8090 H       2  LIG2        0.0235
     29    H      -62.6710  -76.5170  -11.6110 H       2  LIG2        0.0235
     30    H      -63.7490  -77.6470  -12.3880 H       2  LIG2        0.0235
     31    H      -61.9520  -74.7850  -14.1150 H       2  LIG2        0.0235
     32    H      -60.5390  -75.6800  -14.6460 H       2  LIG2        0.0235
     33    H      -60.7610  -75.3380  -12.9380 H       2  LIG2        0.0235
     34    H      -60.8780  -81.1590  -10.3390 H       2  LIG2        0.0268
     35    H      -62.2080  -80.0660  -10.0240 H       2  LIG2        0.0268
     36    H      -58.9300  -80.2600  -11.8320 H       2  LIG2        0.0233
     37    H      -59.0970  -79.2090  -10.4290 H       2  LIG2        0.0233
     38    H      -58.9500  -78.5090  -12.0350 H       2  LIG2        0.0233
     39    H      -61.3620  -82.0120  -14.9160 H       2  LIG2        0.0257
     40    H      -62.7950  -82.6440  -15.7090 H       2  LIG2        0.0257
     41    H      -62.4740  -83.0620  -14.0450 H       2  LIG2        0.0257
     42    H      -64.8760  -81.9140  -14.7890 H       2  LIG2        0.2102
@<TRIPOS>BOND
     1    26    11    1
     2    27    11    1
     3    22     7    1
     4    18     4    1
     5    40    16    1
     6    11     7    1
     7    11     9    1
     8     7     4    1
     9     7    21    1
    10     4     2    1
    11     4     3    1
    12    39    16    1
    13    42     1    1
    14    16     9    1
    15    16    41    1
    16    32    13    1
    17     9     1    1
    18     9     6    1
    19    17     2    1
    20    31    13    1
    21     2     3    1
    22     2     5    1
    23    13     3    1
    24    13    33    1
    25     3    12    1
    26    19     5    1
    27     5     6    1
    28     5     8    1
    29     6    20    1
    30     6    10    1
    31    28    12    1
    32    12    30    1
    33    12    29    1
    34    25    10    1
    35    38    15    1
    36    36    15    1
    37    10    24    1
    38    10    14    1
    39     8    15    1
    40     8    23    1
    41     8    14    1
    42    15    37    1
    43    14    34    1
    44    14    35    1
