@<TRIPOS>MOLECULE
11996452_6_run_23.pdb
 42 44 0 0 0
SMALL
GASTEIGER

@<TRIPOS>ATOM
      1    O      -66.2890  -89.5480   -8.9290 O.3     2  LIG2       -0.3886
      2    C      -70.6950  -89.2080   -8.0220 C.3     2  LIG2       -0.0289
      3    C      -71.6800  -88.0310   -7.9570 C.3     2  LIG2       -0.0284
      4    C      -70.1970  -87.7840   -7.7590 C.3     2  LIG2       -0.0319
      5    C      -70.1450  -89.9970   -9.2580 C.3     2  LIG2       -0.0294
      6    C      -68.6040  -90.2620   -9.2870 C.3     2  LIG2       -0.0090
      7    C      -69.2520  -87.1590   -8.8060 C.3     2  LIG2       -0.0468
      8    C      -70.5900  -89.6590  -10.7130 C.3     2  LIG2       -0.0404
      9    C      -67.6280  -89.2660   -8.5490 C.3     2  LIG2        0.0664
     10    C      -68.3110  -90.5360  -10.7810 C.3     2  LIG2       -0.0471
     11    C      -67.8210  -87.7380   -8.8180 C.3     2  LIG2       -0.0237
     12    C      -72.4100  -87.3880   -9.1600 C.3     2  LIG2       -0.0593
     13    C      -72.5590  -87.9850   -6.6910 C.3     2  LIG2       -0.0593
     14    C      -69.3180  -89.7120  -11.5710 C.3     2  LIG2       -0.0498
     15    C      -71.7280  -90.5520  -11.2450 C.3     2  LIG2       -0.0621
     16    C      -67.5680  -89.5500   -7.0220 C.3     2  LIG2       -0.0358
     17    H      -70.7020  -89.8730   -7.1560 H       2  LIG2        0.0312
     18    H      -69.8960  -87.5070   -6.7470 H       2  LIG2        0.0309
     19    H      -70.5610  -90.9930   -9.0890 H       2  LIG2        0.0310
     20    H      -68.4450  -91.2210   -8.7900 H       2  LIG2        0.0331
     21    H      -69.6480  -87.2430   -9.8120 H       2  LIG2        0.0269
     22    H      -69.1960  -86.0840   -8.6260 H       2  LIG2        0.0269
     23    H      -70.9420  -88.6440  -10.8010 H       2  LIG2        0.0301
     24    H      -67.2950  -90.2900  -11.0900 H       2  LIG2        0.0269
     25    H      -68.4500  -91.5960  -10.9970 H       2  LIG2        0.0269
     26    H      -67.4000  -87.4890   -9.7940 H       2  LIG2        0.0293
     27    H      -67.2280  -87.1720   -8.0980 H       2  LIG2        0.0293
     28    H      -73.0110  -86.5380   -8.8330 H       2  LIG2        0.0235
     29    H      -73.0920  -88.0980   -9.6240 H       2  LIG2        0.0235
     30    H      -71.7630  -86.9770   -9.9290 H       2  LIG2        0.0235
     31    H      -72.8530  -86.9620   -6.4520 H       2  LIG2        0.0235
     32    H      -72.0450  -88.3810   -5.8140 H       2  LIG2        0.0235
     33    H      -73.4670  -88.5720   -6.8260 H       2  LIG2        0.0235
     34    H      -69.4910  -90.1450  -12.5580 H       2  LIG2        0.0268
     35    H      -68.9300  -88.7040  -11.7320 H       2  LIG2        0.0268
     36    H      -71.4290  -91.6010  -11.2830 H       2  LIG2        0.0233
     37    H      -72.0230  -90.2570  -12.2530 H       2  LIG2        0.0233
     38    H      -72.6120  -90.4810  -10.6120 H       2  LIG2        0.0233
     39    H      -68.5160  -89.3950   -6.5140 H       2  LIG2        0.0257
     40    H      -66.8400  -88.9140   -6.5150 H       2  LIG2        0.0257
     41    H      -67.2800  -90.5830   -6.8170 H       2  LIG2        0.0257
     42    H      -65.7020  -89.0020   -8.4000 H       2  LIG2        0.2102
@<TRIPOS>BOND
     1    34    14    1
     2    37    15    1
     3    35    14    1
     4    14    10    1
     5    14     8    1
     6    36    15    1
     7    15     8    1
     8    15    38    1
     9    24    10    1
    10    25    10    1
    11    23     8    1
    12    10     6    1
    13     8     5    1
    14    30    12    1
    15    21     7    1
    16    26    11    1
    17    29    12    1
    18     6     5    1
    19     6    20    1
    20     6     9    1
    21     5    19    1
    22     5     2    1
    23    12    28    1
    24    12     3    1
    25     1     9    1
    26     1    42    1
    27    11     7    1
    28    11     9    1
    29    11    27    1
    30     7    22    1
    31     7     4    1
    32     9    16    1
    33     2     3    1
    34     2     4    1
    35     2    17    1
    36     3     4    1
    37     3    13    1
    38     4    18    1
    39    16    41    1
    40    16    40    1
    41    16    39    1
    42    33    13    1
    43    13    31    1
    44    13    32    1
@<TRIPOS>MOLECULE
11996452_6_run_10.pdb
 42 44 0 0 0
SMALL
GASTEIGER

@<TRIPOS>ATOM
      1    O      -66.5390  -89.5330   -8.6790 O.3     2  LIG2       -0.3886
      2    C      -70.4970  -87.3860   -8.4070 C.3     2  LIG2       -0.0289
      3    C      -71.9620  -87.8420   -8.4830 C.3     2  LIG2       -0.0284
      4    C      -70.8770  -88.6810   -9.1310 C.3     2  LIG2       -0.0319
      5    C      -69.4830  -87.4420   -7.2150 C.3     2  LIG2       -0.0294
      6    C      -68.0490  -87.9760   -7.5430 C.3     2  LIG2       -0.0090
      7    C      -70.3170  -90.0020   -8.5630 C.3     2  LIG2       -0.0468
      8    C      -69.8860  -88.0090   -5.8200 C.3     2  LIG2       -0.0404
      9    C      -67.8490  -88.9880   -8.7370 C.3     2  LIG2        0.0664
     10    C      -67.5010  -88.4150   -6.1660 C.3     2  LIG2       -0.0471
     11    C      -68.8070  -90.2220   -8.8010 C.3     2  LIG2       -0.0237
     12    C      -72.7940  -88.4310   -7.3190 C.3     2  LIG2       -0.0593
     13    C      -72.8530  -87.0190   -9.4350 C.3     2  LIG2       -0.0593
     14    C      -68.7050  -88.8730   -5.3540 C.3     2  LIG2       -0.0498
     15    C      -70.2980  -86.9310   -4.7990 C.3     2  LIG2       -0.0621
     16    C      -67.8050  -88.2560  -10.1070 C.3     2  LIG2       -0.0358
     17    H      -70.2350  -86.5450   -9.0520 H       2  LIG2        0.0312
     18    H      -70.8810  -88.6960  -10.2220 H       2  LIG2        0.0309
     19    H      -69.3110  -86.3820   -7.0200 H       2  LIG2        0.0310
     20    H      -67.4510  -87.1050   -7.8190 H       2  LIG2        0.0331
     21    H      -70.4960  -90.0940   -7.4980 H       2  LIG2        0.0269
     22    H      -70.8690  -90.8320   -9.0040 H       2  LIG2        0.0269
     23    H      -70.7180  -88.6900   -5.8860 H       2  LIG2        0.0301
     24    H      -66.7530  -89.2050   -6.2130 H       2  LIG2        0.0269
     25    H      -67.0230  -87.5680   -5.6710 H       2  LIG2        0.0269
     26    H      -68.4880  -90.9640   -8.0660 H       2  LIG2        0.0293
     27    H      -68.6930  -90.7110   -9.7700 H       2  LIG2        0.0293
     28    H      -73.7880  -88.7160   -7.6650 H       2  LIG2        0.0235
     29    H      -72.9310  -87.6940   -6.5290 H       2  LIG2        0.0235
     30    H      -72.3950  -89.3390   -6.8770 H       2  LIG2        0.0235
     31    H      -73.6760  -87.6210   -9.8240 H       2  LIG2        0.0235
     32    H      -72.3020  -86.6400  -10.2960 H       2  LIG2        0.0235
     33    H      -73.2810  -86.1590   -8.9200 H       2  LIG2        0.0235
     34    H      -68.5130  -88.7840   -4.2830 H       2  LIG2        0.0268
     35    H      -68.9080  -89.9270   -5.5520 H       2  LIG2        0.0268
     36    H      -69.4780  -86.2410   -4.5930 H       2  LIG2        0.0233
     37    H      -70.5980  -87.3790   -3.8510 H       2  LIG2        0.0233
     38    H      -71.1420  -86.3450   -5.1660 H       2  LIG2        0.0233
     39    H      -68.7330  -87.7520  -10.3600 H       2  LIG2        0.0257
     40    H      -67.5930  -88.9410  -10.9300 H       2  LIG2        0.0257
     41    H      -67.0280  -87.4900  -10.1280 H       2  LIG2        0.0257
     42    H      -65.9470  -88.8640   -8.3250 H       2  LIG2        0.2102
@<TRIPOS>BOND
     1    40    16    1
     2    39    16    1
     3    32    13    1
     4    18     4    1
     5    41    16    1
     6    16     9    1
     7    31    13    1
     8    27    11    1
     9    13    33    1
    10    13     3    1
    11     4     7    1
    12     4     3    1
    13     4     2    1
    14    17     2    1
    15    22     7    1
    16    11     9    1
    17    11     7    1
    18    11    26    1
    19     9     1    1
    20     9     6    1
    21     1    42    1
    22     7    21    1
    23     3     2    1
    24     3    12    1
    25     2     5    1
    26    20     6    1
    27    28    12    1
    28     6     5    1
    29     6    10    1
    30    12    30    1
    31    12    29    1
    32     5    19    1
    33     5     8    1
    34    24    10    1
    35    10    25    1
    36    10    14    1
    37    23     8    1
    38     8    14    1
    39     8    15    1
    40    35    14    1
    41    14    34    1
    42    38    15    1
    43    15    36    1
    44    15    37    1
@<TRIPOS>MOLECULE
11996452_6_run_20.pdb
 42 44 0 0 0
SMALL
GASTEIGER

@<TRIPOS>ATOM
      1    O      -72.5930  -86.4090   -7.0900 O.3     2  LIG2       -0.3886
      2    C      -68.4260  -87.8800   -6.1780 C.3     2  LIG2       -0.0289
      3    C      -67.8620  -89.1950   -5.6220 C.3     2  LIG2       -0.0284
      4    C      -69.2950  -88.8030   -5.3190 C.3     2  LIG2       -0.0319
      5    C      -68.8960  -87.5160   -7.6270 C.3     2  LIG2       -0.0294
      6    C      -70.2610  -86.7620   -7.7500 C.3     2  LIG2       -0.0090
      7    C      -70.5440  -89.4210   -5.9800 C.3     2  LIG2       -0.0468
      8    C      -68.8210  -88.5430   -8.7970 C.3     2  LIG2       -0.0404
      9    C      -71.3650  -86.9650   -6.6420 C.3     2  LIG2        0.0664
     10    C      -70.6920  -87.0280   -9.2110 C.3     2  LIG2       -0.0471
     11    C      -71.7050  -88.4330   -6.2250 C.3     2  LIG2       -0.0237
     12    C      -67.5740  -90.4790   -6.4360 C.3     2  LIG2       -0.0593
     13    C      -66.8480  -89.0350   -4.4710 C.3     2  LIG2       -0.0593
     14    C      -70.1340  -88.3960   -9.5790 C.3     2  LIG2       -0.0498
     15    C      -67.5640  -88.4010   -9.6780 C.3     2  LIG2       -0.0621
     16    C      -71.0850  -86.0900   -5.3880 C.3     2  LIG2       -0.0358
     17    H      -68.0720  -86.9730   -5.6850 H       2  LIG2        0.0312
     18    H      -69.4980  -88.5260   -4.2830 H       2  LIG2        0.0309
     19    H      -68.1680  -86.7520   -7.9110 H       2  LIG2        0.0310
     20    H      -70.0300  -85.6950   -7.7150 H       2  LIG2        0.0331
     21    H      -70.3100  -89.8930   -6.9280 H       2  LIG2        0.0269
     22    H      -70.9020  -90.2380   -5.3520 H       2  LIG2        0.0269
     23    H      -68.8220  -89.5600   -8.4420 H       2  LIG2        0.0301
     24    H      -71.7700  -87.0030   -9.3710 H       2  LIG2        0.0269
     25    H      -70.2660  -86.2670   -9.8670 H       2  LIG2        0.0269
     26    H      -72.3350  -88.8880   -6.9920 H       2  LIG2        0.0293
     27    H      -72.3190  -88.4140   -5.3230 H       2  LIG2        0.0293
     28    H      -67.2230  -91.2770   -5.7810 H       2  LIG2        0.0235
     29    H      -66.7890  -90.3050   -7.1700 H       2  LIG2        0.0235
     30    H      -68.4320  -90.9080   -6.9440 H       2  LIG2        0.0235
     31    H      -66.8530  -89.9070   -3.8160 H       2  LIG2        0.0235
     32    H      -67.0630  -88.1670   -3.8460 H       2  LIG2        0.0235
     33    H      -65.8360  -88.9120   -4.8580 H       2  LIG2        0.0235
     34    H      -69.9970  -88.4870  -10.6580 H       2  LIG2        0.0268
     35    H      -70.8380  -89.1760   -9.2830 H       2  LIG2        0.0268
     36    H      -67.5230  -87.4240  -10.1630 H       2  LIG2        0.0233
     37    H      -67.5430  -89.1590  -10.4620 H       2  LIG2        0.0233
     38    H      -66.6550  -88.5180   -9.0860 H       2  LIG2        0.0233
     39    H      -70.1640  -86.3500   -4.8740 H       2  LIG2        0.0257
     40    H      -71.8830  -86.1690   -4.6470 H       2  LIG2        0.0257
     41    H      -71.0000  -85.0330   -5.6470 H       2  LIG2        0.0257
     42    H      -72.4210  -85.5270   -7.4290 H       2  LIG2        0.2102
@<TRIPOS>BOND
     1    34    14    1
     2    37    15    1
     3    36    15    1
     4    25    10    1
     5    15    38    1
     6    15     8    1
     7    14    35    1
     8    14    10    1
     9    14     8    1
    10    24    10    1
    11    10     6    1
    12     8    23    1
    13     8     5    1
    14    19     5    1
    15     6    20    1
    16     6     5    1
    17     6     9    1
    18     5     2    1
    19    42     1    1
    20    29    12    1
    21     1     9    1
    22    26    11    1
    23    30    12    1
    24    21     7    1
    25     9    11    1
    26     9    16    1
    27    12    28    1
    28    12     3    1
    29    11     7    1
    30    11    27    1
    31     2    17    1
    32     2     3    1
    33     2     4    1
    34     7    22    1
    35     7     4    1
    36    41    16    1
    37     3     4    1
    38     3    13    1
    39    16    39    1
    40    16    40    1
    41     4    18    1
    42    33    13    1
    43    13    32    1
    44    13    31    1
@<TRIPOS>MOLECULE
11996452_6_run_9.pdb
 42 44 0 0 0
SMALL
GASTEIGER

@<TRIPOS>ATOM
      1    O      -72.0180  -86.4090   -7.0160 O.3     2  LIG2       -0.3886
      2    C      -69.7660  -89.6400   -9.2170 C.3     2  LIG2       -0.0289
      3    C      -68.3720  -89.7160   -9.8570 C.3     2  LIG2       -0.0284
      4    C      -69.0420  -88.3690   -9.6720 C.3     2  LIG2       -0.0319
      5    C      -70.1970  -89.7820   -7.7180 C.3     2  LIG2       -0.0294
      6    C      -71.2040  -88.7130   -7.1770 C.3     2  LIG2       -0.0090
      7    C      -68.6740  -87.3350   -8.5870 C.3     2  LIG2       -0.0468
      8    C      -69.1610  -90.0630   -6.5880 C.3     2  LIG2       -0.0404
      9    C      -71.2360  -87.2750   -7.8260 C.3     2  LIG2        0.0664
     10    C      -71.0100  -88.7750   -5.6450 C.3     2  LIG2       -0.0471
     11    C      -69.8690  -86.5410   -8.0160 C.3     2  LIG2       -0.0237
     12    C      -67.0470  -90.0210   -9.1190 C.3     2  LIG2       -0.0593
     13    C      -68.3440  -90.2770  -11.2930 C.3     2  LIG2       -0.0593
     14    C      -69.5550  -89.1560   -5.4130 C.3     2  LIG2       -0.0498
     15    C      -69.0420  -91.5510   -6.2020 C.3     2  LIG2       -0.0621
     16    C      -72.0540  -87.2620   -9.1480 C.3     2  LIG2       -0.0358
     17    H      -70.5920  -89.9650   -9.8520 H       2  LIG2        0.0312
     18    H      -69.3670  -87.8740  -10.5880 H       2  LIG2        0.0309
     19    H      -70.7990  -90.6930   -7.7460 H       2  LIG2        0.0310
     20    H      -72.2050  -89.1150   -7.3510 H       2  LIG2        0.0331
     21    H      -68.1550  -87.7900   -7.7520 H       2  LIG2        0.0269
     22    H      -67.9520  -86.6330   -9.0060 H       2  LIG2        0.0269
     23    H      -68.1680  -89.7460   -6.8630 H       2  LIG2        0.0301
     24    H      -71.2450  -87.8460   -5.1260 H       2  LIG2        0.0269
     25    H      -71.6640  -89.5380   -5.2200 H       2  LIG2        0.0269
     26    H      -69.5380  -86.1430   -7.0540 H       2  LIG2        0.0293
     27    H      -70.0200  -85.6670   -8.6510 H       2  LIG2        0.0293
     28    H      -66.2030  -89.9640   -9.8080 H       2  LIG2        0.0235
     29    H      -67.0540  -91.0310   -8.7100 H       2  LIG2        0.0235
     30    H      -66.7890  -89.3290   -8.3240 H       2  LIG2        0.0235
     31    H      -67.4980  -89.8800  -11.8560 H       2  LIG2        0.0235
     32    H      -69.2450  -90.0270  -11.8550 H       2  LIG2        0.0235
     33    H      -68.2600  -91.3640  -11.2850 H       2  LIG2        0.0235
     34    H      -69.4250  -89.6410   -4.4440 H       2  LIG2        0.0268
     35    H      -68.9320  -88.2600   -5.4040 H       2  LIG2        0.0268
     36    H      -69.9850  -91.9420   -5.8180 H       2  LIG2        0.0233
     37    H      -68.2850  -91.6990   -5.4310 H       2  LIG2        0.0233
     38    H      -68.7560  -92.1570   -7.0620 H       2  LIG2        0.0233
     39    H      -71.6240  -87.8800   -9.9300 H       2  LIG2        0.0257
     40    H      -72.1430  -86.2560   -9.5630 H       2  LIG2        0.0257
     41    H      -73.0700  -87.6300   -8.9950 H       2  LIG2        0.0257
     42    H      -72.0370  -85.5420   -7.4290 H       2  LIG2        0.2102
@<TRIPOS>BOND
     1    31    13    1
     2    32    13    1
     3    13    33    1
     4    13     3    1
     5    18     4    1
     6    39    16    1
     7     3     4    1
     8     3     2    1
     9     3    12    1
    10    17     2    1
    11    28    12    1
    12     4     2    1
    13     4     7    1
    14    40    16    1
    15     2     5    1
    16    16    41    1
    17    16     9    1
    18    12    29    1
    19    12    30    1
    20    22     7    1
    21    27    11    1
    22     7    11    1
    23     7    21    1
    24    11     9    1
    25    11    26    1
    26     9     6    1
    27     9     1    1
    28    19     5    1
    29     5     6    1
    30     5     8    1
    31    42     1    1
    32    20     6    1
    33     6    10    1
    34    38    15    1
    35    23     8    1
    36     8    15    1
    37     8    14    1
    38    15    36    1
    39    15    37    1
    40    10    14    1
    41    10    25    1
    42    10    24    1
    43    14    35    1
    44    14    34    1
@<TRIPOS>MOLECULE
11996452_6_run_22.pdb
 42 44 0 0 0
SMALL
GASTEIGER

@<TRIPOS>ATOM
      1    O      -66.6820  -89.0140   -8.7610 O.3     2  LIG2       -0.3886
      2    C      -70.7200  -89.4010   -6.7860 C.3     2  LIG2       -0.0289
      3    C      -71.3430  -88.8050   -5.5160 C.3     2  LIG2       -0.0284
      4    C      -69.8350  -88.9200   -5.6320 C.3     2  LIG2       -0.0319
      5    C      -70.5310  -88.7740   -8.2090 C.3     2  LIG2       -0.0294
      6    C      -69.1270  -88.9600   -8.8740 C.3     2  LIG2       -0.0090
      7    C      -68.8730  -87.7480   -5.9150 C.3     2  LIG2       -0.0468
      8    C      -71.0200  -87.3320   -8.5410 C.3     2  LIG2       -0.0404
      9    C      -67.8500  -89.1300   -7.9630 C.3     2  LIG2        0.0664
     10    C      -69.0760  -87.8350   -9.9330 C.3     2  LIG2       -0.0471
     11    C      -67.6570  -88.1060   -6.7970 C.3     2  LIG2       -0.0237
     12    C      -71.9970  -87.4080   -5.3920 C.3     2  LIG2       -0.0593
     13    C      -72.0410  -89.8230   -4.5910 C.3     2  LIG2       -0.0593
     14    C      -69.9040  -86.6860   -9.3760 C.3     2  LIG2       -0.0498
     15    C      -72.4030  -87.2780   -9.2190 C.3     2  LIG2       -0.0621
     16    C      -67.7100  -90.5870   -7.4400 C.3     2  LIG2       -0.0358
     17    H      -70.8120  -90.4840   -6.8890 H       2  LIG2        0.0312
     18    H      -69.3680  -89.6600   -4.9800 H       2  LIG2        0.0309
     19    H      -71.1770  -89.4090   -8.8190 H       2  LIG2        0.0310
     20    H      -69.1780  -89.8870   -9.4500 H       2  LIG2        0.0331
     21    H      -69.3800  -86.9110   -6.3810 H       2  LIG2        0.0269
     22    H      -68.5150  -87.3540   -4.9640 H       2  LIG2        0.0269
     23    H      -71.0960  -86.7180   -7.6590 H       2  LIG2        0.0301
     24    H      -68.0690  -87.4940  -10.1740 H       2  LIG2        0.0269
     25    H      -69.5140  -88.1870  -10.8680 H       2  LIG2        0.0269
     26    H      -67.2890  -87.1620   -7.2060 H       2  LIG2        0.0293
     27    H      -66.8630  -88.4620   -6.1390 H       2  LIG2        0.0293
     28    H      -72.3130  -87.2230   -4.3650 H       2  LIG2        0.0235
     29    H      -72.8880  -87.3410   -6.0140 H       2  LIG2        0.0235
     30    H      -71.3490  -86.5700   -5.6270 H       2  LIG2        0.0235
     31    H      -72.0250  -89.4880   -3.5530 H       2  LIG2        0.0235
     32    H      -71.5630  -90.8030   -4.6170 H       2  LIG2        0.0235
     33    H      -73.0820  -89.9630   -4.8830 H       2  LIG2        0.0235
     34    H      -70.2880  -86.0540  -10.1790 H       2  LIG2        0.0268
     35    H      -69.2810  -86.0500   -8.7450 H       2  LIG2        0.0268
     36    H      -72.3990  -87.7980  -10.1780 H       2  LIG2        0.0233
     37    H      -72.7120  -86.2480   -9.4040 H       2  LIG2        0.0233
     38    H      -73.1650  -87.7410   -8.5920 H       2  LIG2        0.0233
     39    H      -68.5230  -90.8960   -6.7910 H       2  LIG2        0.0257
     40    H      -66.7890  -90.7310   -6.8710 H       2  LIG2        0.0257
     41    H      -67.6860  -91.3070   -8.2610 H       2  LIG2        0.0257
     42    H      -65.9260  -88.9080   -8.1790 H       2  LIG2        0.2102
@<TRIPOS>BOND
     1    25    10    1
     2    34    14    1
     3    36    15    1
     4    24    10    1
     5    10    14    1
     6    10     6    1
     7    20     6    1
     8    37    15    1
     9    14    35    1
    10    14     8    1
    11    15    38    1
    12    15     8    1
    13     6     5    1
    14     6     9    1
    15    19     5    1
    16     1    42    1
    17     1     9    1
    18     8     5    1
    19     8    23    1
    20    41    16    1
    21     5     2    1
    22     9    16    1
    23     9    11    1
    24    16    40    1
    25    16    39    1
    26    26    11    1
    27    17     2    1
    28    11    27    1
    29    11     7    1
    30     2     4    1
    31     2     3    1
    32    21     7    1
    33    29    12    1
    34     7     4    1
    35     7    22    1
    36     4     3    1
    37     4    18    1
    38    30    12    1
    39     3    12    1
    40     3    13    1
    41    12    28    1
    42    33    13    1
    43    32    13    1
    44    13    31    1
@<TRIPOS>MOLECULE
11996452_6_run_12.pdb
 42 44 0 0 0
SMALL
GASTEIGER

@<TRIPOS>ATOM
      1    O      -67.0390  -87.1200   -7.1270 O.3     2  LIG2       -0.3886
      2    C      -70.2150  -90.2450   -7.8330 C.3     2  LIG2       -0.0289
      3    C      -71.7420  -90.1930   -7.9880 C.3     2  LIG2       -0.0284
      4    C      -71.0230  -89.0860   -7.2420 C.3     2  LIG2       -0.0319
      5    C      -69.0840  -89.9400   -8.8730 C.3     2  LIG2       -0.0294
      6    C      -67.9040  -89.0410   -8.3760 C.3     2  LIG2       -0.0090
      7    C      -70.7470  -87.6730   -7.7980 C.3     2  LIG2       -0.0468
      8    C      -69.4070  -89.5230  -10.3390 C.3     2  LIG2       -0.0404
      9    C      -68.1550  -87.9930   -7.2240 C.3     2  LIG2        0.0664
     10    C      -67.2900  -88.4940   -9.6850 C.3     2  LIG2       -0.0471
     11    C      -69.4000  -87.0560   -7.3620 C.3     2  LIG2       -0.0237
     12    C      -72.5150  -89.8640   -9.2880 C.3     2  LIG2       -0.0593
     13    C      -72.5210  -91.2080   -7.1280 C.3     2  LIG2       -0.0593
     14    C      -68.4360  -88.3840  -10.6820 C.3     2  LIG2       -0.0498
     15    C      -69.3670  -90.6880  -11.3470 C.3     2  LIG2       -0.0621
     16    C      -68.1280  -88.6650   -5.8230 C.3     2  LIG2       -0.0358
     17    H      -69.8430  -90.9760   -7.1130 H       2  LIG2        0.0312
     18    H      -71.1940  -89.0560   -6.1650 H       2  LIG2        0.0309
     19    H      -68.6150  -90.9200   -8.9840 H       2  LIG2        0.0310
     20    H      -67.1480  -89.7170   -7.9720 H       2  LIG2        0.0331
     21    H      -70.7830  -87.6480   -8.8810 H       2  LIG2        0.0269
     22    H      -71.5560  -87.0120   -7.4840 H       2  LIG2        0.0269
     23    H      -70.3880  -89.0860  -10.4280 H       2  LIG2        0.0301
     24    H      -66.7890  -87.5320   -9.5770 H       2  LIG2        0.0269
     25    H      -66.5390  -89.1910  -10.0610 H       2  LIG2        0.0269
     26    H      -69.1780  -86.2680   -8.0850 H       2  LIG2        0.0293
     27    H      -69.5630  -86.5400   -6.4150 H       2  LIG2        0.0293
     28    H      -73.5890  -89.8480   -9.1020 H       2  LIG2        0.0235
     29    H      -72.3360  -90.6240  -10.0480 H       2  LIG2        0.0235
     30    H      -72.3040  -88.8900   -9.7190 H       2  LIG2        0.0235
     31    H      -73.5210  -90.8400   -6.8910 H       2  LIG2        0.0235
     32    H      -72.0250  -91.4140   -6.1780 H       2  LIG2        0.0235
     33    H      -72.6290  -92.1590   -7.6490 H       2  LIG2        0.0235
     34    H      -68.0690  -88.4350  -11.7080 H       2  LIG2        0.0268
     35    H      -68.9330  -87.4180  -10.5720 H       2  LIG2        0.0268
     36    H      -68.3740  -91.1390  -11.3990 H       2  LIG2        0.0233
     37    H      -69.6280  -90.3510  -12.3510 H       2  LIG2        0.0233
     38    H      -70.0740  -91.4710  -11.0710 H       2  LIG2        0.0233
     39    H      -68.9200  -89.3940   -5.6760 H       2  LIG2        0.0257
     40    H      -68.2270  -87.9360   -5.0170 H       2  LIG2        0.0257
     41    H      -67.1910  -89.1970   -5.6510 H       2  LIG2        0.0257
     42    H      -66.2370  -87.6470   -7.1790 H       2  LIG2        0.2102
@<TRIPOS>BOND
     1    37    15    1
     2    34    14    1
     3    36    15    1
     4    15    38    1
     5    15     8    1
     6    14    35    1
     7    14     8    1
     8    14    10    1
     9    23     8    1
    10     8     5    1
    11    25    10    1
    12    29    12    1
    13    30    12    1
    14    10    24    1
    15    10     6    1
    16    12    28    1
    17    12     3    1
    18    19     5    1
    19    21     7    1
    20     5     6    1
    21     5     2    1
    22     6    20    1
    23     6     9    1
    24    26    11    1
    25     3     2    1
    26     3     4    1
    27     3    13    1
    28     2     4    1
    29     2    17    1
    30     7    22    1
    31     7    11    1
    32     7     4    1
    33    33    13    1
    34    11     9    1
    35    11    27    1
    36     4    18    1
    37     9     1    1
    38     9    16    1
    39    42     1    1
    40    13    31    1
    41    13    32    1
    42    16    39    1
    43    16    41    1
    44    16    40    1
@<TRIPOS>MOLECULE
11996452_6_run_13.pdb
 42 44 0 0 0
SMALL
GASTEIGER

@<TRIPOS>ATOM
      1    O      -69.9840  -89.1590  -11.5590 O.3     2  LIG2       -0.3886
      2    C      -69.1980  -89.5130   -7.1310 C.3     2  LIG2       -0.0289
      3    C      -68.3900  -88.6810   -6.1250 C.3     2  LIG2       -0.0284
      4    C      -68.0390  -88.6290   -7.5990 C.3     2  LIG2       -0.0319
      5    C      -70.6300  -89.2740   -7.7180 C.3     2  LIG2       -0.0294
      6    C      -70.7890  -89.4520   -9.2650 C.3     2  LIG2       -0.0090
      7    C      -68.3750  -87.4630   -8.5520 C.3     2  LIG2       -0.0468
      8    C      -71.4980  -88.0510   -7.2960 C.3     2  LIG2       -0.0404
      9    C      -69.5490  -89.2030  -10.2080 C.3     2  LIG2        0.0664
     10    C      -72.0740  -88.6570   -9.5910 C.3     2  LIG2       -0.0471
     11    C      -68.7340  -87.8870   -9.9930 C.3     2  LIG2       -0.0237
     12    C      -68.8740  -87.3980   -5.4070 C.3     2  LIG2       -0.0593
     13    C      -67.4400  -89.4920   -5.2210 C.3     2  LIG2       -0.0593
     14    C      -72.1390  -87.5160   -8.5850 C.3     2  LIG2       -0.0498
     15    C      -72.5210  -88.3590   -6.1850 C.3     2  LIG2       -0.0621
     16    C      -68.6010  -90.4350  -10.2430 C.3     2  LIG2       -0.0358
     17    H      -68.9980  -90.5860   -7.1190 H       2  LIG2        0.0312
     18    H      -67.0930  -89.0990   -7.8750 H       2  LIG2        0.0309
     19    H      -71.1800  -90.1280   -7.3170 H       2  LIG2        0.0310
     20    H      -71.0550  -90.4980   -9.4310 H       2  LIG2        0.0331
     21    H      -69.1900  -86.8550   -8.1780 H       2  LIG2        0.0269
     22    H      -67.5220  -86.7840   -8.5860 H       2  LIG2        0.0269
     23    H      -70.8950  -87.2360   -6.9280 H       2  LIG2        0.0301
     24    H      -72.1140  -88.2680  -10.6080 H       2  LIG2        0.0269
     25    H      -72.9470  -89.3020   -9.4750 H       2  LIG2        0.0269
     26    H      -69.2830  -87.0490  -10.4290 H       2  LIG2        0.0293
     27    H      -67.8040  -87.9470  -10.5620 H       2  LIG2        0.0293
     28    H      -68.0790  -86.9850   -4.7850 H       2  LIG2        0.0235
     29    H      -69.7120  -87.6170   -4.7460 H       2  LIG2        0.0235
     30    H      -69.1550  -86.5790   -6.0610 H       2  LIG2        0.0235
     31    H      -66.5860  -88.8900   -4.9040 H       2  LIG2        0.0235
     32    H      -67.0390  -90.3720   -5.7240 H       2  LIG2        0.0235
     33    H      -67.9560  -89.8380   -4.3250 H       2  LIG2        0.0235
     34    H      -73.1660  -87.1800   -8.4390 H       2  LIG2        0.0268
     35    H      -71.5760  -86.6590   -8.9580 H       2  LIG2        0.0268
     36    H      -73.2410  -89.1150   -6.5030 H       2  LIG2        0.0233
     37    H      -73.0810  -87.4670   -5.9040 H       2  LIG2        0.0233
     38    H      -72.0250  -88.7300   -5.2870 H       2  LIG2        0.0233
     39    H      -68.1450  -90.6590   -9.2840 H       2  LIG2        0.0257
     40    H      -67.7800  -90.3000  -10.9510 H       2  LIG2        0.0257
     41    H      -69.1300  -91.3400  -10.5460 H       2  LIG2        0.0257
     42    H      -70.3710  -88.2960  -11.7250 H       2  LIG2        0.2102
@<TRIPOS>BOND
     1    42     1    1
     2     1     9    1
     3    40    16    1
     4    24    10    1
     5    27    11    1
     6    41    16    1
     7    26    11    1
     8    16     9    1
     9    16    39    1
    10     9    11    1
    11     9     6    1
    12    11     7    1
    13    10    25    1
    14    10     6    1
    15    10    14    1
    16    20     6    1
    17     6     5    1
    18    35    14    1
    19    22     7    1
    20    14    34    1
    21    14     8    1
    22     7    21    1
    23     7     4    1
    24    18     4    1
    25     5    19    1
    26     5     8    1
    27     5     2    1
    28     4     2    1
    29     4     3    1
    30     8    23    1
    31     8    15    1
    32     2    17    1
    33     2     3    1
    34    36    15    1
    35    15    37    1
    36    15    38    1
    37     3    12    1
    38     3    13    1
    39    30    12    1
    40    32    13    1
    41    12    28    1
    42    12    29    1
    43    13    31    1
    44    13    33    1
@<TRIPOS>MOLECULE
11996452_6_run_16.pdb
 42 44 0 0 0
SMALL
GASTEIGER

@<TRIPOS>ATOM
      1    O      -66.5030  -88.5790   -9.9040 O.3     2  LIG2       -0.3886
      2    C      -70.9090  -89.4200   -9.4220 C.3     2  LIG2       -0.0289
      3    C      -71.7100  -90.6070   -8.8670 C.3     2  LIG2       -0.0284
      4    C      -70.3020  -90.8260   -9.3850 C.3     2  LIG2       -0.0319
      5    C      -70.1850  -88.2520   -8.6710 C.3     2  LIG2       -0.0294
      6    C      -68.7340  -87.9110   -9.1460 C.3     2  LIG2       -0.0090
      7    C      -69.0540  -91.0360   -8.5040 C.3     2  LIG2       -0.0468
      8    C      -70.2090  -88.1350   -7.1170 C.3     2  LIG2       -0.0404
      9    C      -67.8440  -89.0360   -9.8010 C.3     2  LIG2        0.0664
     10    C      -68.1230  -87.1630   -7.9380 C.3     2  LIG2       -0.0471
     11    C      -67.7560  -90.4080   -9.0560 C.3     2  LIG2       -0.0237
     12    C      -72.0290  -90.8740   -7.3760 C.3     2  LIG2       -0.0593
     13    C      -72.8590  -91.0990   -9.7710 C.3     2  LIG2       -0.0593
     14    C      -68.7840  -87.7460   -6.6960 C.3     2  LIG2       -0.0498
     15    C      -71.2910  -87.1800   -6.5750 C.3     2  LIG2       -0.0621
     16    C      -68.2000  -89.2480  -11.2990 C.3     2  LIG2       -0.0358
     17    H      -71.2190  -89.0660  -10.4070 H       2  LIG2        0.0312
     18    H      -70.2250  -91.3930  -10.3140 H       2  LIG2        0.0309
     19    H      -70.7610  -87.3850   -9.0010 H       2  LIG2        0.0310
     20    H      -68.8340  -87.1520   -9.9250 H       2  LIG2        0.0331
     21    H      -69.1980  -90.6580   -7.4980 H       2  LIG2        0.0269
     22    H      -68.8980  -92.1080   -8.3710 H       2  LIG2        0.0269
     23    H      -70.3870  -89.0860   -6.6430 H       2  LIG2        0.0301
     24    H      -67.0390  -87.2440   -7.8630 H       2  LIG2        0.0269
     25    H      -68.3480  -86.0970   -8.0110 H       2  LIG2        0.0269
     26    H      -67.0780  -90.3120   -8.2050 H       2  LIG2        0.0293
     27    H      -67.2870  -91.1410   -9.7150 H       2  LIG2        0.0293
     28    H      -72.5700  -91.8130   -7.2630 H       2  LIG2        0.0235
     29    H      -72.6660  -90.0890   -6.9700 H       2  LIG2        0.0235
     30    H      -71.1640  -90.9840   -6.7300 H       2  LIG2        0.0235
     31    H      -73.0610  -92.1590   -9.6110 H       2  LIG2        0.0235
     32    H      -72.6350  -90.9740  -10.8310 H       2  LIG2        0.0235
     33    H      -73.7770  -90.5480   -9.5680 H       2  LIG2        0.0235
     34    H      -68.7670  -87.0320   -5.8710 H       2  LIG2        0.0268
     35    H      -68.2350  -88.6280   -6.3620 H       2  LIG2        0.0268
     36    H      -71.1370  -86.1590   -6.9290 H       2  LIG2        0.0233
     37    H      -71.2860  -87.1560   -5.4850 H       2  LIG2        0.0233
     38    H      -72.2860  -87.4950   -6.8920 H       2  LIG2        0.0233
     39    H      -69.2130  -89.6060  -11.4580 H       2  LIG2        0.0257
     40    H      -67.5390  -89.9730  -11.7790 H       2  LIG2        0.0257
     41    H      -68.1140  -88.3210  -11.8670 H       2  LIG2        0.0257
     42    H      -66.0980  -88.6290   -9.0350 H       2  LIG2        0.2102
@<TRIPOS>BOND
     1    41    16    1
     2    40    16    1
     3    39    16    1
     4    16     9    1
     5    32    13    1
     6    17     2    1
     7    18     4    1
     8    20     6    1
     9     1     9    1
    10     1    42    1
    11     9     6    1
    12     9    11    1
    13    13    31    1
    14    13    33    1
    15    13     3    1
    16    27    11    1
    17     2     4    1
    18     2     3    1
    19     2     5    1
    20     4     3    1
    21     4     7    1
    22     6     5    1
    23     6    10    1
    24    11     7    1
    25    11    26    1
    26    19     5    1
    27     3    12    1
    28     5     8    1
    29     7    22    1
    30     7    21    1
    31    25    10    1
    32    10    24    1
    33    10    14    1
    34    12    28    1
    35    12    29    1
    36    12    30    1
    37     8    14    1
    38     8    23    1
    39     8    15    1
    40    36    15    1
    41    38    15    1
    42    14    35    1
    43    14    34    1
    44    15    37    1
@<TRIPOS>MOLECULE
11996452_6_run_15.pdb
 42 44 0 0 0
SMALL
GASTEIGER

@<TRIPOS>ATOM
      1    O      -66.2340  -89.4930   -9.1920 O.3     2  LIG2       -0.3886
      2    C      -70.7050  -88.9350   -8.9590 C.3     2  LIG2       -0.0289
      3    C      -71.8980  -89.6150   -9.6460 C.3     2  LIG2       -0.0284
      4    C      -70.5340  -89.6420  -10.3060 C.3     2  LIG2       -0.0319
      5    C      -69.8460  -89.4000   -7.7340 C.3     2  LIG2       -0.0294
      6    C      -68.2940  -89.2800   -7.8850 C.3     2  LIG2       -0.0090
      7    C      -69.5930  -90.8640  -10.3520 C.3     2  LIG2       -0.0468
      8    C      -70.1420  -90.7320   -6.9820 C.3     2  LIG2       -0.0404
      9    C      -67.6420  -89.3560   -9.3200 C.3     2  LIG2        0.0664
     10    C      -67.7490  -90.2660   -6.8260 C.3     2  LIG2       -0.0471
     11    C      -68.0890  -90.5290  -10.2510 C.3     2  LIG2       -0.0237
     12    C      -72.5660  -90.9410   -9.2100 C.3     2  LIG2       -0.0593
     13    C      -72.9370  -88.6510  -10.2550 C.3     2  LIG2       -0.0593
     14    C      -68.7780  -91.3830   -6.7140 C.3     2  LIG2       -0.0498
     15    C      -71.0000  -90.5600   -5.7130 C.3     2  LIG2       -0.0621
     16    C      -67.7410  -87.9960  -10.0660 C.3     2  LIG2       -0.0358
     17    H      -70.7030  -87.8440   -8.9960 H       2  LIG2        0.0312
     18    H      -70.4360  -89.0400  -11.2110 H       2  LIG2        0.0309
     19    H      -70.0800  -88.6310   -6.9940 H       2  LIG2        0.0310
     20    H      -68.0220  -88.2900   -7.5120 H       2  LIG2        0.0331
     21    H      -69.8210  -91.5820   -9.5720 H       2  LIG2        0.0269
     22    H      -69.7720  -91.4070  -11.2810 H       2  LIG2        0.0269
     23    H      -70.6690  -91.4380   -7.6040 H       2  LIG2        0.0301
     24    H      -66.7680  -90.6770   -7.0600 H       2  LIG2        0.0269
     25    H      -67.6490  -89.7590   -5.8650 H       2  LIG2        0.0269
     26    H      -67.5930  -91.4490   -9.9340 H       2  LIG2        0.0293
     27    H      -67.7230  -90.3400  -11.2620 H       2  LIG2        0.0293
     28    H      -73.3590  -91.2170   -9.9050 H       2  LIG2        0.0235
     29    H      -73.0260  -90.8390   -8.2280 H       2  LIG2        0.0235
     30    H      -71.9110  -91.8070   -9.1960 H       2  LIG2        0.0235
     31    H      -73.4540  -89.1090  -11.0990 H       2  LIG2        0.0235
     32    H      -72.4820  -87.7300  -10.6230 H       2  LIG2        0.0235
     33    H      -73.6860  -88.3690   -9.5150 H       2  LIG2        0.0235
     34    H      -68.7250  -91.8690   -5.7380 H       2  LIG2        0.0268
     35    H      -68.5740  -92.1530   -7.4610 H       2  LIG2        0.0268
     36    H      -70.5000  -89.9290   -4.9750 H       2  LIG2        0.0233
     37    H      -71.2040  -91.5220   -5.2410 H       2  LIG2        0.0233
     38    H      -71.9600  -90.1010   -5.9480 H       2  LIG2        0.0233
     39    H      -68.7610  -87.6860  -10.2700 H       2  LIG2        0.0257
     40    H      -67.2270  -88.0190  -11.0290 H       2  LIG2        0.0257
     41    H      -67.2890  -87.1870   -9.4880 H       2  LIG2        0.0257
     42    H      -65.9340  -88.9060   -8.4940 H       2  LIG2        0.2102
@<TRIPOS>BOND
     1    22     7    1
     2    27    11    1
     3    18     4    1
     4    31    13    1
     5    40    16    1
     6    32    13    1
     7     7     4    1
     8     7    11    1
     9     7    21    1
    10     4     3    1
    11     4     2    1
    12    39    16    1
    13    13     3    1
    14    13    33    1
    15    11    26    1
    16    11     9    1
    17    16    41    1
    18    16     9    1
    19    28    12    1
    20     3    12    1
    21     3     2    1
    22     9     1    1
    23     9     6    1
    24    12    30    1
    25    12    29    1
    26     1    42    1
    27    17     2    1
    28     2     5    1
    29     6     5    1
    30     6    20    1
    31     6    10    1
    32     5    19    1
    33     5     8    1
    34    23     8    1
    35    35    14    1
    36    24    10    1
    37     8    14    1
    38     8    15    1
    39    10    14    1
    40    10    25    1
    41    14    34    1
    42    38    15    1
    43    15    37    1
    44    15    36    1
@<TRIPOS>MOLECULE
11996452_6_run_23.pdb
 42 44 0 0 0
SMALL
GASTEIGER

@<TRIPOS>ATOM
      1    O      -71.6430  -88.6590  -10.9140 O.3     2  LIG2       -0.3886
      2    C      -71.1410  -87.1760   -6.6830 C.3     2  LIG2       -0.0289
      3    C      -71.4710  -87.7650   -5.3040 C.3     2  LIG2       -0.0284
      4    C      -72.2250  -88.2460   -6.5280 C.3     2  LIG2       -0.0319
      5    C      -69.9260  -87.4480   -7.6330 C.3     2  LIG2       -0.0294
      6    C      -70.2600  -87.6870   -9.1420 C.3     2  LIG2       -0.0090
      7    C      -71.9970  -89.5960   -7.2390 C.3     2  LIG2       -0.0468
      8    C      -68.7840  -88.4340   -7.2430 C.3     2  LIG2       -0.0404
      9    C      -71.6640  -88.2830   -9.5450 C.3     2  LIG2        0.0664
     10    C      -69.0140  -88.4320   -9.6760 C.3     2  LIG2       -0.0471
     11    C      -72.1520  -89.5540   -8.7750 C.3     2  LIG2       -0.0237
     12    C      -70.5940  -88.7590   -4.5050 C.3     2  LIG2       -0.0593
     13    C      -72.2330  -86.8190   -4.3550 C.3     2  LIG2       -0.0593
     14    C      -68.4710  -89.2460   -8.5090 C.3     2  LIG2       -0.0498
     15    C      -67.5450  -87.7510   -6.6310 C.3     2  LIG2       -0.0621
     16    C      -72.7680  -87.1900   -9.5540 C.3     2  LIG2       -0.0358
     17    H      -71.5020  -86.1610   -6.8560 H       2  LIG2        0.0312
     18    H      -73.2740  -87.9480   -6.5820 H       2  LIG2        0.0309
     19    H      -69.4300  -86.4750   -7.6430 H       2  LIG2        0.0310
     20    H      -70.2290  -86.7070   -9.6250 H       2  LIG2        0.0331
     21    H      -71.0200  -90.0100   -7.0210 H       2  LIG2        0.0269
     22    H      -72.6990  -90.3260   -6.8340 H       2  LIG2        0.0269
     23    H      -69.1100  -89.1640   -6.5200 H       2  LIG2        0.0301
     24    H      -69.2120  -89.0790  -10.5300 H       2  LIG2        0.0269
     25    H      -68.2640  -87.7100  -10.0040 H       2  LIG2        0.0269
     26    H      -71.6260  -90.4300   -9.1580 H       2  LIG2        0.0293
     27    H      -73.2040  -89.7270   -9.0070 H       2  LIG2        0.0293
     28    H      -71.0920  -89.0510   -3.5800 H       2  LIG2        0.0235
     29    H      -69.6460  -88.3010   -4.2240 H       2  LIG2        0.0235
     30    H      -70.3860  -89.7000   -5.0050 H       2  LIG2        0.0235
     31    H      -72.8450  -87.3790   -3.6460 H       2  LIG2        0.0235
     32    H      -72.9030  -86.1450   -4.8900 H       2  LIG2        0.0235
     33    H      -71.5410  -86.2000   -3.7830 H       2  LIG2        0.0235
     34    H      -67.4050  -89.4440   -8.6320 H       2  LIG2        0.0268
     35    H      -68.9700  -90.2160   -8.4680 H       2  LIG2        0.0268
     36    H      -67.0840  -87.0550   -7.3330 H       2  LIG2        0.0233
     37    H      -66.7890  -88.4850   -6.3490 H       2  LIG2        0.0233
     38    H      -67.8090  -87.1920   -5.7330 H       2  LIG2        0.0233
     39    H      -72.9530  -86.7510   -8.5780 H       2  LIG2        0.0257
     40    H      -73.7270  -87.5790   -9.9030 H       2  LIG2        0.0257
     41    H      -72.5070  -86.3610  -10.2150 H       2  LIG2        0.0257
     42    H      -71.3290  -87.9110  -11.4290 H       2  LIG2        0.2102
@<TRIPOS>BOND
     1    42     1    1
     2     1     9    1
     3    24    10    1
     4    41    16    1
     5    25    10    1
     6    40    16    1
     7    10     6    1
     8    10    14    1
     9    20     6    1
    10    16     9    1
    11    16    39    1
    12     9     6    1
    13     9    11    1
    14    26    11    1
    15     6     5    1
    16    27    11    1
    17    11     7    1
    18    34    14    1
    19    14    35    1
    20    14     8    1
    21    19     5    1
    22     5     8    1
    23     5     2    1
    24    36    15    1
    25     8    15    1
    26     8    23    1
    27     7    21    1
    28     7    22    1
    29     7     4    1
    30    17     2    1
    31     2     4    1
    32     2     3    1
    33    15    37    1
    34    15    38    1
    35    18     4    1
    36     4     3    1
    37     3    12    1
    38     3    13    1
    39    30    12    1
    40    32    13    1
    41    12    29    1
    42    12    28    1
    43    13    33    1
    44    13    31    1
