@<TRIPOS>MOLECULE
11996452_1_run_8.pdb
 42 44 0 0 0
SMALL
GASTEIGER

@<TRIPOS>ATOM
      1    O      -61.1710  -83.8160  -16.4670 O.3     2  LIG2       -0.3886
      2    C      -61.3660  -81.1060  -14.2640 C.3     2  LIG2       -0.0289
      3    C      -61.7710  -81.2670  -12.8070 C.3     2  LIG2       -0.0284
      4    C      -60.8580  -82.3020  -13.4290 C.3     2  LIG2       -0.0319
      5    C      -62.2750  -81.1230  -15.5450 C.3     2  LIG2       -0.0294
      6    C      -63.0600  -82.3510  -16.0730 C.3     2  LIG2       -0.0090
      7    C      -61.2380  -83.7950  -13.5750 C.3     2  LIG2       -0.0468
      8    C      -63.3260  -79.9850  -15.6370 C.3     2  LIG2       -0.0404
      9    C      -62.4740  -83.7800  -15.9050 C.3     2  LIG2        0.0664
     10    C      -64.5400  -82.1290  -15.6920 C.3     2  LIG2       -0.0471
     11    C      -62.4110  -84.2750  -14.4440 C.3     2  LIG2       -0.0237
     12    C      -61.1120  -80.3070  -11.7960 C.3     2  LIG2       -0.0593
     13    C      -63.2060  -81.6170  -12.3810 C.3     2  LIG2       -0.0593
     14    C      -64.6830  -80.6410  -15.3340 C.3     2  LIG2       -0.0498
     15    C      -63.0440  -78.7130  -14.8120 C.3     2  LIG2       -0.0621
     16    C      -63.2790  -84.8010  -16.7470 C.3     2  LIG2       -0.0358
     17    H      -60.6190  -80.3260  -14.4240 H       2  LIG2        0.0312
     18    H      -59.7890  -82.2360  -13.2230 H       2  LIG2        0.0309
     19    H      -61.5410  -80.9200  -16.3290 H       2  LIG2        0.0310
     20    H      -63.0650  -82.2070  -17.1590 H       2  LIG2        0.0331
     21    H      -60.3420  -84.3180  -13.9150 H       2  LIG2        0.0269
     22    H      -61.3940  -84.1840  -12.5680 H       2  LIG2        0.0269
     23    H      -63.3590  -79.6590  -16.6790 H       2  LIG2        0.0301
     24    H      -65.1830  -82.3670  -16.5410 H       2  LIG2        0.0269
     25    H      -64.8790  -82.7690  -14.8800 H       2  LIG2        0.0269
     26    H      -62.3410  -85.3650  -14.4510 H       2  LIG2        0.0293
     27    H      -63.3610  -84.1120  -13.9410 H       2  LIG2        0.0293
     28    H      -61.0890  -80.7450  -10.7980 H       2  LIG2        0.0235
     29    H      -61.6580  -79.3660  -11.7350 H       2  LIG2        0.0235
     30    H      -60.0830  -80.0670  -12.0650 H       2  LIG2        0.0235
     31    H      -63.2070  -82.1590  -11.4340 H       2  LIG2        0.0235
     32    H      -63.7320  -82.2300  -13.0970 H       2  LIG2        0.0235
     33    H      -63.8020  -80.7150  -12.2390 H       2  LIG2        0.0235
     34    H      -64.9640  -80.5180  -14.2890 H       2  LIG2        0.0268
     35    H      -65.4760  -80.1780  -15.9230 H       2  LIG2        0.0268
     36    H      -63.0690  -78.9060  -13.7410 H       2  LIG2        0.0233
     37    H      -63.7880  -77.9440  -15.0180 H       2  LIG2        0.0233
     38    H      -62.0670  -78.2940  -15.0540 H       2  LIG2        0.0233
     39    H      -64.3020  -84.9010  -16.3800 H       2  LIG2        0.0257
     40    H      -62.8320  -85.7970  -16.7220 H       2  LIG2        0.0257
     41    H      -63.3380  -84.5040  -17.7950 H       2  LIG2        0.0257
     42    H      -60.8130  -84.6980  -16.3470 H       2  LIG2        0.2102
@<TRIPOS>BOND
     1    41    16    1
     2    20     6    1
     3    16    40    1
     4    16    39    1
     5    16     9    1
     6    23     8    1
     7    24    10    1
     8     1    42    1
     9     1     9    1
    10    19     5    1
    11     6     9    1
    12     6    10    1
    13     6     5    1
    14    35    14    1
    15     9    11    1
    16    10    14    1
    17    10    25    1
    18     8     5    1
    19     8    14    1
    20     8    15    1
    21     5     2    1
    22    14    34    1
    23    38    15    1
    24    37    15    1
    25    15    36    1
    26    26    11    1
    27    11    27    1
    28    11     7    1
    29    17     2    1
    30     2     4    1
    31     2     3    1
    32    21     7    1
    33     7     4    1
    34     7    22    1
    35     4    18    1
    36     4     3    1
    37    32    13    1
    38     3    13    1
    39     3    12    1
    40    13    33    1
    41    13    31    1
    42    30    12    1
    43    12    29    1
    44    12    28    1
@<TRIPOS>MOLECULE
11996452_1_run_6.pdb
 42 44 0 0 0
SMALL
GASTEIGER

@<TRIPOS>ATOM
      1    O      -61.3740  -82.1870  -16.2920 O.3     2  LIG2       -0.3886
      2    C      -60.5950  -79.9520  -13.7170 C.3     2  LIG2       -0.0289
      3    C      -61.0270  -80.1830  -12.2770 C.3     2  LIG2       -0.0284
      4    C      -60.5390  -81.3630  -13.0910 C.3     2  LIG2       -0.0319
      5    C      -61.4550  -79.4540  -14.9330 C.3     2  LIG2       -0.0294
      6    C      -62.6250  -80.2360  -15.5860 C.3     2  LIG2       -0.0090
      7    C      -61.4210  -82.5890  -13.4270 C.3     2  LIG2       -0.0468
      8    C      -62.0380  -78.0220  -14.8010 C.3     2  LIG2       -0.0404
      9    C      -62.5790  -81.7870  -15.6570 C.3     2  LIG2        0.0664
     10    C      -63.9300  -79.5740  -15.0930 C.3     2  LIG2       -0.0471
     11    C      -62.6910  -82.4910  -14.2870 C.3     2  LIG2       -0.0237
     12    C      -60.0680  -79.6800  -11.1780 C.3     2  LIG2       -0.0593
     13    C      -62.4920  -80.0730  -11.8240 C.3     2  LIG2       -0.0593
     14    C      -63.5390  -78.2040  -14.5190 C.3     2  LIG2       -0.0498
     15    C      -61.3240  -77.0710  -13.8200 C.3     2  LIG2       -0.0621
     16    C      -63.6950  -82.3210  -16.5890 C.3     2  LIG2       -0.0358
     17    H      -59.6220  -79.4650  -13.8050 H       2  LIG2        0.0312
     18    H      -59.5140  -81.7050  -12.9390 H       2  LIG2        0.0309
     19    H      -60.7000  -79.4010  -15.7200 H       2  LIG2        0.0310
     20    H      -62.5820  -79.9340  -16.6370 H       2  LIG2        0.0331
     21    H      -60.7680  -83.3320  -13.8890 H       2  LIG2        0.0269
     22    H      -61.7010  -83.0490  -12.4790 H       2  LIG2        0.0269
     23    H      -61.9580  -77.5480  -15.7820 H       2  LIG2        0.0301
     24    H      -64.6190  -79.4400  -15.9290 H       2  LIG2        0.0269
     25    H      -64.4700  -80.1730  -14.3630 H       2  LIG2        0.0269
     26    H      -63.0090  -83.5230  -14.4540 H       2  LIG2        0.0293
     27    H      -63.5200  -82.0880  -13.7130 H       2  LIG2        0.0293
     28    H      -60.1990  -80.2470  -10.2560 H       2  LIG2        0.0235
     29    H      -60.2480  -78.6300  -10.9520 H       2  LIG2        0.0235
     30    H      -59.0210  -79.7750  -11.4680 H       2  LIG2        0.0235
     31    H      -62.6810  -80.7200  -10.9660 H       2  LIG2        0.0235
     32    H      -63.2020  -80.3470  -12.5890 H       2  LIG2        0.0235
     33    H      -62.7310  -79.0540  -11.5210 H       2  LIG2        0.0235
     34    H      -63.7550  -78.1520  -13.4520 H       2  LIG2        0.0268
     35    H      -64.1200  -77.4090  -14.9890 H       2  LIG2        0.0268
     36    H      -61.4120  -77.4050  -12.7880 H       2  LIG2        0.0233
     37    H      -61.7500  -76.0680  -13.8720 H       2  LIG2        0.0233
     38    H      -60.2630  -76.9860  -14.0560 H       2  LIG2        0.0233
     39    H      -64.6860  -82.1140  -16.1830 H       2  LIG2        0.0257
     40    H      -63.6280  -83.4020  -16.7320 H       2  LIG2        0.0257
     41    H      -63.6490  -81.8650  -17.5790 H       2  LIG2        0.0257
     42    H      -61.3420  -83.1460  -16.3050 H       2  LIG2        0.2102
@<TRIPOS>BOND
     1    41    16    1
     2    40    16    1
     3    20     6    1
     4    16    39    1
     5    16     9    1
     6    42     1    1
     7     1     9    1
     8    24    10    1
     9    23     8    1
    10    19     5    1
    11     9     6    1
    12     9    11    1
    13     6    10    1
    14     6     5    1
    15    10    14    1
    16    10    25    1
    17    35    14    1
    18     5     8    1
    19     5     2    1
    20     8    14    1
    21     8    15    1
    22    14    34    1
    23    26    11    1
    24    11    27    1
    25    11     7    1
    26    38    15    1
    27    21     7    1
    28    37    15    1
    29    15    36    1
    30    17     2    1
    31     2     4    1
    32     2     3    1
    33     7     4    1
    34     7    22    1
    35     4    18    1
    36     4     3    1
    37    32    13    1
    38     3    13    1
    39     3    12    1
    40    13    33    1
    41    13    31    1
    42    30    12    1
    43    12    29    1
    44    12    28    1
@<TRIPOS>MOLECULE
11996452_1_run_18.pdb
 42 44 0 0 0
SMALL
GASTEIGER

@<TRIPOS>ATOM
      1    O      -71.5400  -89.4090  -12.8710 O.3     2  LIG2       -0.3886
      2    C      -69.4160  -88.6870  -10.1870 C.3     2  LIG2       -0.0289
      3    C      -68.3420  -89.6540   -9.7140 C.3     2  LIG2       -0.0284
      4    C      -68.5690  -89.4860  -11.2010 C.3     2  LIG2       -0.0319
      5    C      -70.9680  -88.7460   -9.9460 C.3     2  LIG2       -0.0294
      6    C      -71.9240  -89.8260  -10.5150 C.3     2  LIG2       -0.0090
      7    C      -69.0280  -90.6370  -12.1280 C.3     2  LIG2       -0.0468
      8    C      -71.4210  -88.6390   -8.4660 C.3     2  LIG2       -0.0404
      9    C      -71.6500  -90.4500  -11.9110 C.3     2  LIG2        0.0664
     10    C      -72.2560  -90.7830   -9.3500 C.3     2  LIG2       -0.0471
     11    C      -70.3880  -91.3370  -11.9760 C.3     2  LIG2       -0.0237
     12    C      -67.0470  -89.0290   -9.1550 C.3     2  LIG2       -0.0593
     13    C      -68.6720  -90.9730   -8.9960 C.3     2  LIG2       -0.0593
     14    C      -71.8560  -90.0560   -8.0570 C.3     2  LIG2       -0.0498
     15    C      -70.4340  -87.9760   -7.4850 C.3     2  LIG2       -0.0621
     16    C      -72.8700  -91.2760  -12.3860 C.3     2  LIG2       -0.0358
     17    H      -69.1280  -87.6380  -10.0950 H       2  LIG2        0.0312
     18    H      -67.8830  -88.8470  -11.7590 H       2  LIG2        0.0309
     19    H      -71.2930  -87.8220  -10.4290 H       2  LIG2        0.0310
     20    H      -72.8660  -89.2850  -10.6610 H       2  LIG2        0.0331
     21    H      -68.9630  -90.2650  -13.1520 H       2  LIG2        0.0269
     22    H      -68.2570  -91.4060  -12.0860 H       2  LIG2        0.0269
     23    H      -72.3180  -88.0170   -8.4470 H       2  LIG2        0.0301
     24    H      -73.3270  -90.9960   -9.3360 H       2  LIG2        0.0269
     25    H      -71.7670  -91.7510   -9.4320 H       2  LIG2        0.0269
     26    H      -70.4740  -91.9960  -12.8420 H       2  LIG2        0.0293
     27    H      -70.3720  -92.0440  -11.1520 H       2  LIG2        0.0293
     28    H      -66.2050  -89.7130   -9.2630 H       2  LIG2        0.0235
     29    H      -67.1510  -88.7910   -8.0970 H       2  LIG2        0.0235
     30    H      -66.7790  -88.1050   -9.6690 H       2  LIG2        0.0235
     31    H      -67.8970  -91.7180   -9.1800 H       2  LIG2        0.0235
     32    H      -69.6100  -91.4090   -9.3060 H       2  LIG2        0.0235
     33    H      -68.7330  -90.8260   -7.9180 H       2  LIG2        0.0235
     34    H      -71.0560  -90.5890   -7.5430 H       2  LIG2        0.0268
     35    H      -72.6950  -90.0170   -7.3610 H       2  LIG2        0.0268
     36    H      -69.5240  -88.5610   -7.3600 H       2  LIG2        0.0233
     37    H      -70.8830  -87.8650   -6.4980 H       2  LIG2        0.0233
     38    H      -70.1480  -86.9800   -7.8260 H       2  LIG2        0.0233
     39    H      -73.0360  -92.1460  -11.7480 H       2  LIG2        0.0257
     40    H      -72.7430  -91.6490  -13.4050 H       2  LIG2        0.0257
     41    H      -73.7890  -90.6870  -12.3750 H       2  LIG2        0.0257
     42    H      -71.0510  -88.6830  -12.4770 H       2  LIG2        0.2102
@<TRIPOS>BOND
     1    40    16    1
     2    21     7    1
     3     1    42    1
     4     1     9    1
     5    26    11    1
     6    16    41    1
     7    16     9    1
     8    16    39    1
     9     7    22    1
    10     7    11    1
    11     7     4    1
    12    11     9    1
    13    11    27    1
    14     9     6    1
    15    18     4    1
    16     4     2    1
    17     4     3    1
    18    20     6    1
    19     6     5    1
    20     6    10    1
    21    19     5    1
    22     2    17    1
    23     2     5    1
    24     2     3    1
    25     5     8    1
    26     3    12    1
    27     3    13    1
    28    30    12    1
    29    25    10    1
    30    10    24    1
    31    10    14    1
    32    32    13    1
    33    28    12    1
    34    31    13    1
    35    12    29    1
    36    13    33    1
    37     8    23    1
    38     8    14    1
    39     8    15    1
    40    14    34    1
    41    14    35    1
    42    38    15    1
    43    15    36    1
    44    15    37    1
@<TRIPOS>MOLECULE
11996452_1_run_16.pdb
 42 44 0 0 0
SMALL
GASTEIGER

@<TRIPOS>ATOM
      1    O      -66.7320  -88.5770   -9.6790 O.3     2  LIG2       -0.3886
      2    C      -68.1730  -88.1630   -6.5190 C.3     2  LIG2       -0.0289
      3    C      -68.7770  -89.3210   -5.7400 C.3     2  LIG2       -0.0284
      4    C      -67.4880  -89.5480   -6.5000 C.3     2  LIG2       -0.0319
      5    C      -68.7710  -87.3840   -7.7450 C.3     2  LIG2       -0.0294
      6    C      -69.0210  -87.9820   -9.1540 C.3     2  LIG2       -0.0090
      7    C      -67.3510  -90.5580   -7.6640 C.3     2  LIG2       -0.0468
      8    C      -70.0860  -86.6070   -7.4690 C.3     2  LIG2       -0.0404
      9    C      -68.0640  -89.0670   -9.7190 C.3     2  LIG2        0.0664
     10    C      -70.5410  -88.2310   -9.2660 C.3     2  LIG2       -0.0471
     11    C      -68.1290  -90.4220   -8.9810 C.3     2  LIG2       -0.0237
     12    C      -68.6530  -89.2610   -4.2040 C.3     2  LIG2       -0.0593
     13    C      -70.0870  -90.0080   -6.1610 C.3     2  LIG2       -0.0593
     14    C      -71.2040  -87.4220   -8.1410 C.3     2  LIG2       -0.0498
     15    C      -70.3750  -86.2320   -6.0020 C.3     2  LIG2       -0.0621
     16    C      -68.3370  -89.3010  -11.2250 C.3     2  LIG2       -0.0358
     17    H      -67.6890  -87.4180   -5.8840 H       2  LIG2        0.0312
     18    H      -66.5510  -89.5350   -5.9400 H       2  LIG2        0.0309
     19    H      -68.0020  -86.6260   -7.9110 H       2  LIG2        0.0310
     20    H      -68.8640  -87.1320   -9.8260 H       2  LIG2        0.0331
     21    H      -66.2890  -90.6110   -7.9130 H       2  LIG2        0.0269
     22    H      -67.5670  -91.5450   -7.2550 H       2  LIG2        0.0269
     23    H      -70.0200  -85.6590   -8.0080 H       2  LIG2        0.0301
     24    H      -70.9050  -87.8820  -10.2340 H       2  LIG2        0.0269
     25    H      -70.8120  -89.2830   -9.2140 H       2  LIG2        0.0269
     26    H      -67.7240  -91.1930   -9.6390 H       2  LIG2        0.0293
     27    H      -69.1600  -90.7450   -8.8600 H       2  LIG2        0.0293
     28    H      -68.6850  -90.2610   -3.7700 H       2  LIG2        0.0235
     29    H      -69.4650  -88.6810   -3.7670 H       2  LIG2        0.0235
     30    H      -67.7180  -88.8010   -3.8830 H       2  LIG2        0.0235
     31    H      -70.0990  -91.0490   -5.8360 H       2  LIG2        0.0235
     32    H      -70.2500  -90.0090   -7.2280 H       2  LIG2        0.0235
     33    H      -70.9480  -89.5170   -5.7090 H       2  LIG2        0.0235
     34    H      -71.7020  -88.0800   -7.4300 H       2  LIG2        0.0268
     35    H      -71.9740  -86.7620   -8.5430 H       2  LIG2        0.0268
     36    H      -70.5420  -87.1100   -5.3800 H       2  LIG2        0.0233
     37    H      -71.2670  -85.6110   -5.9280 H       2  LIG2        0.0233
     38    H      -69.5480  -85.6670   -5.5690 H       2  LIG2        0.0233
     39    H      -69.3280  -89.7270  -11.3890 H       2  LIG2        0.0257
     40    H      -67.6160  -89.9900  -11.6710 H       2  LIG2        0.0257
     41    H      -68.2850  -88.3720  -11.7960 H       2  LIG2        0.0257
     42    H      -66.4980  -88.4090   -8.7640 H       2  LIG2        0.2102
@<TRIPOS>BOND
     1    41    16    1
     2    40    16    1
     3    39    16    1
     4    16     9    1
     5    24    10    1
     6    20     6    1
     7     9     1    1
     8     9     6    1
     9     9    11    1
    10     1    42    1
    11    26    11    1
    12    10    25    1
    13    10     6    1
    14    10    14    1
    15     6     5    1
    16    11    27    1
    17    11     7    1
    18    35    14    1
    19    14     8    1
    20    14    34    1
    21    23     8    1
    22    21     7    1
    23    19     5    1
    24     5     8    1
    25     5     2    1
    26     7    22    1
    27     7     4    1
    28     8    15    1
    29    32    13    1
    30     2     4    1
    31     2    17    1
    32     2     3    1
    33     4    18    1
    34     4     3    1
    35    13    31    1
    36    13     3    1
    37    13    33    1
    38    15    37    1
    39    15    38    1
    40    15    36    1
    41     3    12    1
    42    12    30    1
    43    12    28    1
    44    12    29    1
@<TRIPOS>MOLECULE
11996452_1_run_16.pdb
 42 44 0 0 0
SMALL
GASTEIGER

@<TRIPOS>ATOM
      1    O      -69.3230  -88.6590  -11.5910 O.3     2  LIG2       -0.3886
      2    C      -68.9150  -87.7690   -8.2330 C.3     2  LIG2       -0.0289
      3    C      -68.2870  -88.7050   -7.2120 C.3     2  LIG2       -0.0284
      4    C      -67.6880  -88.6330   -8.6000 C.3     2  LIG2       -0.0319
      5    C      -70.3600  -87.8110   -8.8470 C.3     2  LIG2       -0.0294
      6    C      -70.9080  -88.9240   -9.7780 C.3     2  LIG2       -0.0090
      7    C      -67.6280  -89.8400   -9.5660 C.3     2  LIG2       -0.0468
      8    C      -71.5230  -87.6090   -7.8400 C.3     2  LIG2       -0.0404
      9    C      -69.9600  -89.6360  -10.7810 C.3     2  LIG2        0.0664
     10    C      -71.8390  -89.8030   -8.9160 C.3     2  LIG2       -0.0471
     11    C      -68.8860  -90.5270  -10.1200 C.3     2  LIG2       -0.0237
     12    C      -67.4620  -88.0470   -6.0870 C.3     2  LIG2       -0.0593
     13    C      -68.9930  -89.9750   -6.7080 C.3     2  LIG2       -0.0593
     14    C      -72.1570  -88.9960   -7.6480 C.3     2  LIG2       -0.0498
     15    C      -71.1810  -86.8860   -6.5220 C.3     2  LIG2       -0.0621
     16    C      -70.7730  -90.4900  -11.7850 C.3     2  LIG2       -0.0358
     17    H      -68.6820  -86.7170   -8.0590 H       2  LIG2        0.0312
     18    H      -66.7890  -88.0310   -8.7430 H       2  LIG2        0.0309
     19    H      -70.3490  -86.9190   -9.4780 H       2  LIG2        0.0310
     20    H      -71.6110  -88.3930  -10.4290 H       2  LIG2        0.0331
     21    H      -67.0180  -89.5340  -10.4190 H       2  LIG2        0.0269
     22    H      -67.0220  -90.6060   -9.0810 H       2  LIG2        0.0269
     23    H      -72.2730  -86.9860   -8.3330 H       2  LIG2        0.0301
     24    H      -72.7620  -90.0140   -9.4600 H       2  LIG2        0.0269
     25    H      -71.4150  -90.7760   -8.6750 H       2  LIG2        0.0269
     26    H      -68.5240  -91.2410  -10.8630 H       2  LIG2        0.0293
     27    H      -69.3330  -91.1810   -9.3760 H       2  LIG2        0.0293
     28    H      -66.7150  -88.7380   -5.6950 H       2  LIG2        0.0235
     29    H      -68.1010  -87.7430   -5.2580 H       2  LIG2        0.0235
     30    H      -66.9310  -87.1590   -6.4290 H       2  LIG2        0.0235
     31    H      -68.2640  -90.7310   -6.4140 H       2  LIG2        0.0235
     32    H      -69.6400  -90.4290   -7.4440 H       2  LIG2        0.0235
     33    H      -69.6080  -89.7590   -5.8350 H       2  LIG2        0.0235
     34    H      -71.7690  -89.4960   -6.7610 H       2  LIG2        0.0268
     35    H      -73.2360  -88.9120   -7.5060 H       2  LIG2        0.0268
     36    H      -70.4950  -87.4630   -5.9040 H       2  LIG2        0.0233
     37    H      -72.0800  -86.7110   -5.9300 H       2  LIG2        0.0233
     38    H      -70.7240  -85.9140   -6.7130 H       2  LIG2        0.0233
     39    H      -71.2810  -91.3160  -11.2850 H       2  LIG2        0.0257
     40    H      -70.1390  -90.9270  -12.5600 H       2  LIG2        0.0257
     41    H      -71.5370  -89.9000  -12.2940 H       2  LIG2        0.0257
     42    H      -69.9870  -88.0370  -11.8960 H       2  LIG2        0.2102
@<TRIPOS>BOND
     1    40    16    1
     2    41    16    1
     3    42     1    1
     4    16    39    1
     5    16     9    1
     6     1     9    1
     7    26    11    1
     8     9    11    1
     9     9     6    1
    10    20     6    1
    11    21     7    1
    12    11     7    1
    13    11    27    1
    14     6    10    1
    15     6     5    1
    16     7    22    1
    17     7     4    1
    18    19     5    1
    19    24    10    1
    20    10    25    1
    21    10    14    1
    22     5     2    1
    23     5     8    1
    24    18     4    1
    25     4     2    1
    26     4     3    1
    27    23     8    1
    28     2    17    1
    29     2     3    1
    30     8    14    1
    31     8    15    1
    32    14    35    1
    33    14    34    1
    34    32    13    1
    35     3    13    1
    36     3    12    1
    37    38    15    1
    38    13    31    1
    39    13    33    1
    40    15    37    1
    41    15    36    1
    42    30    12    1
    43    12    28    1
    44    12    29    1
@<TRIPOS>MOLECULE
11996452_1_run_16.pdb
 42 44 0 0 0
SMALL
GASTEIGER

@<TRIPOS>ATOM
      1    O      -62.8100  -79.4500  -15.4580 O.3     2  LIG2       -0.3886
      2    C      -63.1160  -82.6880  -16.7430 C.3     2  LIG2       -0.0289
      3    C      -64.3120  -83.5770  -16.4380 C.3     2  LIG2       -0.0284
      4    C      -64.5460  -82.1060  -16.7040 C.3     2  LIG2       -0.0319
      5    C      -61.8910  -82.3380  -15.8240 C.3     2  LIG2       -0.0294
      6    C      -61.9590  -81.5120  -14.5130 C.3     2  LIG2       -0.0090
      7    C      -65.1510  -81.1370  -15.6600 C.3     2  LIG2       -0.0468
      8    C      -60.9900  -83.5360  -15.4220 C.3     2  LIG2       -0.0404
      9    C      -62.9840  -80.3530  -14.3770 C.3     2  LIG2        0.0664
     10    C      -61.8490  -82.5200  -13.3480 C.3     2  LIG2       -0.0471
     11    C      -64.4590  -80.8090  -14.3280 C.3     2  LIG2       -0.0237
     12    C      -64.7570  -84.5430  -17.5550 C.3     2  LIG2       -0.0593
     13    C      -64.5550  -84.1900  -15.0490 C.3     2  LIG2       -0.0593
     14    C      -61.3130  -83.8290  -13.9480 C.3     2  LIG2       -0.0498
     15    C      -61.0390  -84.7770  -16.3360 C.3     2  LIG2       -0.0621
     16    C      -62.6790  -79.5030  -13.1190 C.3     2  LIG2       -0.0358
     17    H      -62.7180  -82.8250  -17.7510 H       2  LIG2        0.0312
     18    H      -64.8970  -81.8100  -17.6940 H       2  LIG2        0.0309
     19    H      -61.2900  -81.7210  -16.4960 H       2  LIG2        0.0310
     20    H      -60.9920  -80.9990  -14.4810 H       2  LIG2        0.0331
     21    H      -65.3370  -80.1920  -16.1750 H       2  LIG2        0.0269
     22    H      -66.1520  -81.5030  -15.4290 H       2  LIG2        0.0269
     23    H      -59.9550  -83.1870  -15.4540 H       2  LIG2        0.0301
     24    H      -61.1510  -82.1460  -12.5970 H       2  LIG2        0.0269
     25    H      -62.7880  -82.6770  -12.8220 H       2  LIG2        0.0269
     26    H      -65.0530  -80.0100  -13.8810 H       2  LIG2        0.0293
     27    H      -64.5890  -81.6170  -13.6130 H       2  LIG2        0.0293
     28    H      -65.8140  -84.7930  -17.4570 H       2  LIG2        0.0235
     29    H      -64.1900  -85.4730  -17.5190 H       2  LIG2        0.0235
     30    H      -64.6180  -84.1180  -18.5490 H       2  LIG2        0.0235
     31    H      -65.6210  -84.3470  -14.8770 H       2  LIG2        0.0235
     32    H      -64.1920  -83.5770  -14.2380 H       2  LIG2        0.0235
     33    H      -64.0650  -85.1590  -14.9580 H       2  LIG2        0.0235
     34    H      -62.0450  -84.6300  -13.8490 H       2  LIG2        0.0268
     35    H      -60.4200  -84.1590  -13.4150 H       2  LIG2        0.0268
     36    H      -62.0140  -85.2620  -16.3170 H       2  LIG2        0.0233
     37    H      -60.3040  -85.5190  -16.0220 H       2  LIG2        0.0233
     38    H      -60.8150  -84.5150  -17.3700 H       2  LIG2        0.0233
     39    H      -62.8240  -80.0800  -12.2040 H       2  LIG2        0.0257
     40    H      -63.3260  -78.6260  -13.0490 H       2  LIG2        0.0257
     41    H      -61.6500  -79.1410  -13.1130 H       2  LIG2        0.0257
     42    H      -63.5020  -78.7860  -15.4130 H       2  LIG2        0.2102
@<TRIPOS>BOND
     1    30    12    1
     2    17     2    1
     3    18     4    1
     4    12    29    1
     5    12    28    1
     6    12     3    1
     7    38    15    1
     8     2     4    1
     9     2     3    1
    10     2     5    1
    11     4     3    1
    12     4     7    1
    13    19     5    1
    14     3    13    1
    15    15    36    1
    16    15    37    1
    17    15     8    1
    18    21     7    1
    19     5     8    1
    20     5     6    1
    21     7    22    1
    22     7    11    1
    23     1    42    1
    24     1     9    1
    25    23     8    1
    26     8    14    1
    27    13    33    1
    28    13    31    1
    29    13    32    1
    30     6    20    1
    31     6     9    1
    32     6    10    1
    33     9    11    1
    34     9    16    1
    35    11    26    1
    36    11    27    1
    37    14    34    1
    38    14    35    1
    39    14    10    1
    40    10    25    1
    41    10    24    1
    42    16    41    1
    43    16    40    1
    44    16    39    1
@<TRIPOS>MOLECULE
11996452_1_run_16.pdb
 42 44 0 0 0
SMALL
GASTEIGER

@<TRIPOS>ATOM
      1    O      -70.8050  -85.6590   -6.4290 O.3     2  LIG2       -0.3886
      2    C      -68.3680  -88.0300   -7.2480 C.3     2  LIG2       -0.0289
      3    C      -68.5370  -89.0090   -8.4000 C.3     2  LIG2       -0.0284
      4    C      -68.9930  -87.5780   -8.5860 C.3     2  LIG2       -0.0319
      5    C      -69.0280  -88.0660   -5.8220 C.3     2  LIG2       -0.0294
      6    C      -70.5410  -87.8930   -5.5280 C.3     2  LIG2       -0.0090
      7    C      -70.4630  -87.1810   -8.8650 C.3     2  LIG2       -0.0468
      8    C      -68.6490  -89.2840   -4.9390 C.3     2  LIG2       -0.0404
      9    C      -71.4010  -86.9480   -6.4110 C.3     2  LIG2        0.0664
     10    C      -71.0970  -89.3000   -5.2230 C.3     2  LIG2       -0.0471
     11    C      -71.5990  -87.4360   -7.8630 C.3     2  LIG2       -0.0237
     12    C      -67.2560  -89.4130   -9.1570 C.3     2  LIG2       -0.0593
     13    C      -69.5430  -90.1720   -8.3580 C.3     2  LIG2       -0.0593
     14    C      -69.8850  -90.1990   -4.9320 C.3     2  LIG2       -0.0498
     15    C      -67.3320  -90.0080   -5.2830 C.3     2  LIG2       -0.0621
     16    C      -72.7900  -86.7150   -5.7660 C.3     2  LIG2       -0.0358
     17    H      -67.3370  -87.7020   -7.1040 H       2  LIG2        0.0312
     18    H      -68.3410  -86.8970   -9.1350 H       2  LIG2        0.0309
     19    H      -68.5650  -87.1960   -5.3520 H       2  LIG2        0.0310
     20    H      -70.5590  -87.4070   -4.5470 H       2  LIG2        0.0331
     21    H      -70.4640  -86.1140   -9.0990 H       2  LIG2        0.0269
     22    H      -70.7450  -87.6490   -9.8080 H       2  LIG2        0.0269
     23    H      -68.5250  -88.9160   -3.9170 H       2  LIG2        0.0301
     24    H      -71.7460  -89.2620   -4.3460 H       2  LIG2        0.0269
     25    H      -71.7120  -89.7060   -6.0240 H       2  LIG2        0.0269
     26    H      -72.4730  -86.9330   -8.2800 H       2  LIG2        0.0293
     27    H      -71.9060  -88.4780   -7.8800 H       2  LIG2        0.0293
     28    H      -67.4860  -89.7200  -10.1780 H       2  LIG2        0.0235
     29    H      -66.7530  -90.2440   -8.6630 H       2  LIG2        0.0235
     30    H      -66.5390  -88.5940   -9.2220 H       2  LIG2        0.0235
     31    H      -69.8790  -90.4280   -9.3640 H       2  LIG2        0.0235
     32    H      -70.4260  -89.9580   -7.7750 H       2  LIG2        0.0235
     33    H      -69.0890  -91.0650   -7.9290 H       2  LIG2        0.0235
     34    H      -69.8010  -90.9910   -5.6750 H       2  LIG2        0.0268
     35    H      -69.9950  -90.6930   -3.9660 H       2  LIG2        0.0268
     36    H      -67.3730  -90.4900   -6.2590 H       2  LIG2        0.0233
     37    H      -67.1120  -90.7840   -4.5500 H       2  LIG2        0.0233
     38    H      -66.4910  -89.3150   -5.2860 H       2  LIG2        0.0233
     39    H      -73.3740  -87.6370   -5.7350 H       2  LIG2        0.0257
     40    H      -73.3810  -85.9810   -6.3160 H       2  LIG2        0.0257
     41    H      -72.7050  -86.3520   -4.7400 H       2  LIG2        0.0257
     42    H      -71.2890  -85.1100   -7.0500 H       2  LIG2        0.2102
@<TRIPOS>BOND
     1    28    12    1
     2    22     7    1
     3    31    13    1
     4    30    12    1
     5    12    29    1
     6    12     3    1
     7    18     4    1
     8    21     7    1
     9     7     4    1
    10     7    11    1
    11     4     3    1
    12     4     2    1
    13     3    13    1
    14     3     2    1
    15    13    33    1
    16    13    32    1
    17    26    11    1
    18    27    11    1
    19    11     9    1
    20     2    17    1
    21     2     5    1
    22    42     1    1
    23     1     9    1
    24     9    16    1
    25     9     6    1
    26    40    16    1
    27    36    15    1
    28    25    10    1
    29     5     6    1
    30     5    19    1
    31     5     8    1
    32    16    39    1
    33    16    41    1
    34    34    14    1
    35     6    10    1
    36     6    20    1
    37    38    15    1
    38    15     8    1
    39    15    37    1
    40    10    14    1
    41    10    24    1
    42     8    14    1
    43     8    23    1
    44    14    35    1
@<TRIPOS>MOLECULE
11996452_1_run_2.pdb
 42 44 0 0 0
SMALL
GASTEIGER

@<TRIPOS>ATOM
      1    O      -67.0390  -87.5660   -8.4530 O.3     2  LIG2       -0.3886
      2    C      -70.1070  -87.4670   -6.7760 C.3     2  LIG2       -0.0289
      3    C      -70.4930  -88.4920   -5.7200 C.3     2  LIG2       -0.0284
      4    C      -69.0710  -87.9720   -5.7470 C.3     2  LIG2       -0.0319
      5    C      -70.0900  -87.6230   -8.3390 C.3     2  LIG2       -0.0294
      6    C      -69.1420  -88.5550   -9.1380 C.3     2  LIG2       -0.0090
      7    C      -67.8390  -88.8730   -5.9990 C.3     2  LIG2       -0.0468
      8    C      -71.4670  -87.8930   -9.0010 C.3     2  LIG2       -0.0404
      9    C      -67.6960  -88.8120   -8.6320 C.3     2  LIG2        0.0664
     10    C      -69.9830  -89.7760   -9.5700 C.3     2  LIG2       -0.0471
     11    C      -67.6130  -89.6230   -7.3210 C.3     2  LIG2       -0.0237
     12    C      -71.3730  -87.9890   -4.5580 C.3     2  LIG2       -0.0593
     13    C      -70.8180  -89.9540   -6.0660 C.3     2  LIG2       -0.0593
     14    C      -71.4570  -89.3780   -9.4000 C.3     2  LIG2       -0.0498
     15    C      -72.7150  -87.4650   -8.2040 C.3     2  LIG2       -0.0621
     16    C      -66.8590  -89.5290   -9.7210 C.3     2  LIG2       -0.0358
     17    H      -70.4880  -86.4650   -6.5680 H       2  LIG2        0.0312
     18    H      -68.7920  -87.1980   -5.0300 H       2  LIG2        0.0309
     19    H      -69.7970  -86.6180   -8.6500 H       2  LIG2        0.0310
     20    H      -68.9880  -88.0200  -10.0810 H       2  LIG2        0.0331
     21    H      -66.9550  -88.2600   -5.8140 H       2  LIG2        0.0269
     22    H      -67.8130  -89.6090   -5.1950 H       2  LIG2        0.0269
     23    H      -71.4970  -87.3180   -9.9290 H       2  LIG2        0.0301
     24    H      -69.7830  -90.0140  -10.6160 H       2  LIG2        0.0269
     25    H      -69.7470  -90.6820   -9.0150 H       2  LIG2        0.0269
     26    H      -66.6120  -90.0530   -7.2440 H       2  LIG2        0.0293
     27    H      -68.2380  -90.5100   -7.3770 H       2  LIG2        0.0293
     28    H      -71.2340  -88.6040   -3.6680 H       2  LIG2        0.0235
     29    H      -72.4290  -88.0200   -4.8240 H       2  LIG2        0.0235
     30    H      -71.1400  -86.9610   -4.2780 H       2  LIG2        0.0235
     31    H      -70.5810  -90.6110   -5.2290 H       2  LIG2        0.0235
     32    H      -70.2750  -90.3260   -6.9230 H       2  LIG2        0.0235
     33    H      -71.8780  -90.0770   -6.2860 H       2  LIG2        0.0235
     34    H      -71.9430  -89.9990   -8.6490 H       2  LIG2        0.0268
     35    H      -72.0070  -89.5320  -10.3300 H       2  LIG2        0.0268
     36    H      -72.8320  -88.0390   -7.2860 H       2  LIG2        0.0233
     37    H      -73.6210  -87.6100   -8.7930 H       2  LIG2        0.0233
     38    H      -72.6680  -86.4090   -7.9350 H       2  LIG2        0.0233
     39    H      -67.2400  -90.5320   -9.9200 H       2  LIG2        0.0257
     40    H      -65.8120  -89.6370   -9.4290 H       2  LIG2        0.0257
     41    H      -66.8710  -88.9840  -10.6660 H       2  LIG2        0.0257
     42    H      -66.1830  -87.7290   -8.0520 H       2  LIG2        0.2102
@<TRIPOS>BOND
     1    41    16    1
     2    24    10    1
     3    35    14    1
     4    20     6    1
     5    23     8    1
     6    39    16    1
     7    16    40    1
     8    16     9    1
     9    10    14    1
    10    10     6    1
    11    10    25    1
    12    14     8    1
    13    14    34    1
    14     6     9    1
    15     6     5    1
    16     8     5    1
    17     8    15    1
    18    37    15    1
    19    19     5    1
    20     9     1    1
    21     9    11    1
    22     1    42    1
    23     5     2    1
    24    15    38    1
    25    15    36    1
    26    27    11    1
    27    11    26    1
    28    11     7    1
    29    32    13    1
    30     2    17    1
    31     2     4    1
    32     2     3    1
    33    33    13    1
    34    13     3    1
    35    13    31    1
    36     7    21    1
    37     7     4    1
    38     7    22    1
    39     4     3    1
    40     4    18    1
    41     3    12    1
    42    29    12    1
    43    12    30    1
    44    12    28    1
@<TRIPOS>MOLECULE
11996452_1_run_24.pdb
 42 44 0 0 0
SMALL
GASTEIGER

@<TRIPOS>ATOM
      1    O      -72.7550  -86.6590   -7.8780 O.3     2  LIG2       -0.3886
      2    C      -70.5370  -88.7500   -9.5920 C.3     2  LIG2       -0.0289
      3    C      -70.4450  -90.2430   -9.3170 C.3     2  LIG2       -0.0284
      4    C      -71.8100  -89.5890   -9.3410 C.3     2  LIG2       -0.0319
      5    C      -69.9680  -87.5560   -8.7440 C.3     2  LIG2       -0.0294
      6    C      -70.4490  -87.1540   -7.3250 C.3     2  LIG2       -0.0090
      7    C      -72.7550  -89.5420   -8.1170 C.3     2  LIG2       -0.0468
      8    C      -68.4240  -87.5090   -8.6040 C.3     2  LIG2       -0.0404
      9    C      -71.9400  -87.3320   -6.9300 C.3     2  LIG2        0.0664
     10    C      -69.3750  -87.6550   -6.3350 C.3     2  LIG2       -0.0471
     11    C      -72.3990  -88.8020   -6.8180 C.3     2  LIG2       -0.0237
     12    C      -70.1090  -91.1490  -10.5190 C.3     2  LIG2       -0.0593
     13    C      -69.8520  -90.8100   -8.0160 C.3     2  LIG2       -0.0593
     14    C      -68.1190  -87.9590   -7.1650 C.3     2  LIG2       -0.0498
     15    C      -67.6070  -88.2500   -9.6810 C.3     2  LIG2       -0.0621
     16    C      -72.2380  -86.6100   -5.5930 C.3     2  LIG2       -0.0358
     17    H      -70.3740  -88.4910  -10.6400 H       2  LIG2        0.0312
     18    H      -72.4160  -89.6960  -10.2430 H       2  LIG2        0.0309
     19    H      -70.2410  -86.7030   -9.3680 H       2  LIG2        0.0310
     20    H      -70.3100  -86.0680   -7.3040 H       2  LIG2        0.0331
     21    H      -73.7100  -89.1470   -8.4700 H       2  LIG2        0.0269
     22    H      -72.9870  -90.5740   -7.8550 H       2  LIG2        0.0269
     23    H      -68.1250  -86.4610   -8.6750 H       2  LIG2        0.0301
     24    H      -69.1530  -86.8780   -5.6020 H       2  LIG2        0.0269
     25    H      -69.6910  -88.5210   -5.7560 H       2  LIG2        0.0269
     26    H      -73.3040  -88.8360   -6.2080 H       2  LIG2        0.0293
     27    H      -71.7000  -89.3800   -6.2200 H       2  LIG2        0.0293
     28    H      -70.4900  -92.1590  -10.3650 H       2  LIG2        0.0235
     29    H      -69.0320  -91.2170  -10.6700 H       2  LIG2        0.0235
     30    H      -70.5430  -90.7800  -11.4480 H       2  LIG2        0.0235
     31    H      -70.2990  -91.7750   -7.7760 H       2  LIG2        0.0235
     32    H      -70.0010  -90.1700   -7.1590 H       2  LIG2        0.0235
     33    H      -68.7770  -90.9650   -8.1120 H       2  LIG2        0.0235
     34    H      -67.8700  -89.0180   -7.1210 H       2  LIG2        0.0268
     35    H      -67.2560  -87.4230   -6.7680 H       2  LIG2        0.0268
     36    H      -67.7650  -89.3260   -9.6470 H       2  LIG2        0.0233
     37    H      -66.5390  -88.0760   -9.5460 H       2  LIG2        0.0233
     38    H      -67.8680  -87.9030  -10.6810 H       2  LIG2        0.0233
     39    H      -71.6990  -87.0700   -4.7630 H       2  LIG2        0.0257
     40    H      -73.3000  -86.6380   -5.3380 H       2  LIG2        0.0257
     41    H      -71.9470  -85.5590   -5.6260 H       2  LIG2        0.0257
     42    H      -72.4700  -85.7440   -7.9290 H       2  LIG2        0.2102
@<TRIPOS>BOND
     1    30    12    1
     2    38    15    1
     3    29    12    1
     4    17     2    1
     5    12    28    1
     6    12     3    1
     7    18     4    1
     8    15    36    1
     9    15    37    1
    10    15     8    1
    11     2     4    1
    12     2     3    1
    13     2     5    1
    14    19     5    1
    15     4     3    1
    16     4     7    1
    17     3    13    1
    18     5     8    1
    19     5     6    1
    20    23     8    1
    21     8    14    1
    22    21     7    1
    23     7    22    1
    24     7    11    1
    25    33    13    1
    26    13    31    1
    27    13    32    1
    28    42     1    1
    29     1     9    1
    30     6    20    1
    31     6     9    1
    32     6    10    1
    33    14    34    1
    34    14    35    1
    35    14    10    1
    36     9    11    1
    37     9    16    1
    38    11    27    1
    39    11    26    1
    40    10    25    1
    41    10    24    1
    42    41    16    1
    43    16    40    1
    44    16    39    1
@<TRIPOS>MOLECULE
11996452_1_run_10.pdb
 42 44 0 0 0
SMALL
GASTEIGER

@<TRIPOS>ATOM
      1    O      -70.5860  -88.9240  -10.4850 O.3     2  LIG2       -0.3886
      2    C      -70.2690  -88.6530   -7.0120 C.3     2  LIG2       -0.0289
      3    C      -69.3340  -87.6490   -6.3540 C.3     2  LIG2       -0.0284
      4    C      -70.1290  -87.2190   -7.5690 C.3     2  LIG2       -0.0319
      5    C      -69.9140  -90.0140   -7.7130 C.3     2  LIG2       -0.0294
      6    C      -69.1010  -90.1620   -9.0260 C.3     2  LIG2       -0.0090
      7    C      -69.4780  -86.7730   -8.8990 C.3     2  LIG2       -0.0468
      8    C      -69.2790  -91.0940   -6.7980 C.3     2  LIG2       -0.0404
      9    C      -69.2180  -89.0860  -10.1390 C.3     2  LIG2        0.0664
     10    C      -67.6860  -90.6290   -8.6200 C.3     2  LIG2       -0.0471
     11    C      -68.6230  -87.7120   -9.7640 C.3     2  LIG2       -0.0237
     12    C      -69.7930  -87.0600   -5.0050 C.3     2  LIG2       -0.0593
     13    C      -67.8040  -87.7850   -6.4050 C.3     2  LIG2       -0.0593
     14    C      -67.7890  -91.1410   -7.1750 C.3     2  LIG2       -0.0498
     15    C      -69.5410  -90.9620   -5.2850 C.3     2  LIG2       -0.0621
     16    C      -68.5530  -89.5820  -11.4470 C.3     2  LIG2       -0.0358
     17    H      -71.1880  -88.8250   -6.4490 H       2  LIG2        0.0312
     18    H      -71.0320  -86.6270   -7.4100 H       2  LIG2        0.0309
     19    H      -70.9080  -90.3840   -7.9730 H       2  LIG2        0.0310
     20    H      -69.5260  -91.0570   -9.4930 H       2  LIG2        0.0331
     21    H      -70.2800  -86.3850   -9.5300 H       2  LIG2        0.0269
     22    H      -68.8760  -85.8910   -8.6790 H       2  LIG2        0.0269
     23    H      -69.7080  -92.0560   -7.0890 H       2  LIG2        0.0301
     24    H      -67.3580  -91.4380   -9.2750 H       2  LIG2        0.0269
     25    H      -66.9300  -89.8530   -8.7150 H       2  LIG2        0.0269
     26    H      -68.4230  -87.1590  -10.6840 H       2  LIG2        0.0293
     27    H      -67.6260  -87.8260   -9.3460 H       2  LIG2        0.0293
     28    H      -69.3430  -86.0820   -4.8330 H       2  LIG2        0.0235
     29    H      -69.5090  -87.7080   -4.1760 H       2  LIG2        0.0235
     30    H      -70.8740  -86.9290   -4.9570 H       2  LIG2        0.0235
     31    H      -67.3270  -86.8060   -6.3490 H       2  LIG2        0.0235
     32    H      -67.4430  -88.2610   -7.3050 H       2  LIG2        0.0235
     33    H      -67.4360  -88.3750   -5.5660 H       2  LIG2        0.0235
     34    H      -67.1860  -90.5330   -6.5020 H       2  LIG2        0.0268
     35    H      -67.4030  -92.1590   -7.0980 H       2  LIG2        0.0268
     36    H      -69.0820  -90.0680   -4.8660 H       2  LIG2        0.0233
     37    H      -69.1350  -91.8170   -4.7440 H       2  LIG2        0.0233
     38    H      -70.6100  -90.9210   -5.0720 H       2  LIG2        0.0233
     39    H      -67.4750  -89.7040  -11.3240 H       2  LIG2        0.0257
     40    H      -68.7030  -88.8850  -12.2740 H       2  LIG2        0.0257
     41    H      -68.9530  -90.5460  -11.7660 H       2  LIG2        0.0257
     42    H      -70.6550  -88.2090  -11.1220 H       2  LIG2        0.2102
@<TRIPOS>BOND
     1    40    16    1
     2    41    16    1
     3    16    39    1
     4    16     9    1
     5    42     1    1
     6    26    11    1
     7     1     9    1
     8     9    11    1
     9     9     6    1
    10    11    27    1
    11    11     7    1
    12    21     7    1
    13    20     6    1
    14    24    10    1
    15     6    10    1
    16     6     5    1
    17     7    22    1
    18     7     4    1
    19    25    10    1
    20    10    14    1
    21    19     5    1
    22     5     2    1
    23     5     8    1
    24     4    18    1
    25     4     2    1
    26     4     3    1
    27    32    13    1
    28    14    35    1
    29    14     8    1
    30    14    34    1
    31    23     8    1
    32     2    17    1
    33     2     3    1
    34     8    15    1
    35    13     3    1
    36    13    31    1
    37    13    33    1
    38     3    12    1
    39    15    38    1
    40    15    36    1
    41    15    37    1
    42    12    30    1
    43    12    28    1
    44    12    29    1
