@<TRIPOS>MOLECULE
11996452_3_run_19.pdb
 42 44 0 0 0
SMALL
GASTEIGER

@<TRIPOS>ATOM
      1    O      -66.7150  -87.6590  -10.4290 O.3     2  LIG2       -0.3886
      2    C      -71.0420  -88.3830   -9.1530 C.3     2  LIG2       -0.0289
      3    C      -71.6060  -88.7310   -7.7850 C.3     2  LIG2       -0.0284
      4    C      -70.4950  -87.7070   -7.8890 C.3     2  LIG2       -0.0319
      5    C      -70.1230  -89.3300   -9.9660 C.3     2  LIG2       -0.0294
      6    C      -68.9150  -88.6040  -10.6100 C.3     2  LIG2       -0.0090
      7    C      -69.0400  -87.9690   -7.4460 C.3     2  LIG2       -0.0468
      8    C      -70.8780  -90.0380  -11.1220 C.3     2  LIG2       -0.0404
      9    C      -67.6790  -88.3730   -9.6720 C.3     2  LIG2        0.0664
     10    C      -68.6310  -89.4200  -11.8860 C.3     2  LIG2       -0.0471
     11    C      -67.9850  -87.4570   -8.4520 C.3     2  LIG2       -0.0237
     12    C      -73.0140  -88.1960   -7.4670 C.3     2  LIG2       -0.0593
     13    C      -71.3650  -90.1160   -7.1410 C.3     2  LIG2       -0.0593
     14    C      -69.9920  -89.9090  -12.3730 C.3     2  LIG2       -0.0498
     15    C      -71.2870  -91.4870  -10.7990 C.3     2  LIG2       -0.0621
     16    C      -66.9570  -89.6640   -9.2040 C.3     2  LIG2       -0.0358
     17    H      -71.6400  -87.7450   -9.8050 H       2  LIG2        0.0312
     18    H      -70.7850  -86.6760   -7.6810 H       2  LIG2        0.0309
     19    H      -69.7140  -90.1060   -9.3250 H       2  LIG2        0.0310
     20    H      -69.2600  -87.6210  -10.9440 H       2  LIG2        0.0331
     21    H      -68.8890  -87.4360   -6.5070 H       2  LIG2        0.0269
     22    H      -68.8540  -89.0130   -7.2090 H       2  LIG2        0.0269
     23    H      -71.7970  -89.4910  -11.3390 H       2  LIG2        0.0301
     24    H      -68.1300  -88.8240  -12.6490 H       2  LIG2        0.0269
     25    H      -67.9950  -90.2810  -11.6810 H       2  LIG2        0.0269
     26    H      -68.3080  -86.4740   -8.8020 H       2  LIG2        0.0293
     27    H      -67.0600  -87.2770   -7.8990 H       2  LIG2        0.0293
     28    H      -73.1570  -88.0870   -6.3920 H       2  LIG2        0.0235
     29    H      -73.7840  -88.8720   -7.8420 H       2  LIG2        0.0235
     30    H      -73.1950  -87.2200   -7.9190 H       2  LIG2        0.0235
     31    H      -71.4650  -90.0550   -6.0560 H       2  LIG2        0.0235
     32    H      -70.3860  -90.5440   -7.3400 H       2  LIG2        0.0235
     33    H      -72.1010  -90.8380   -7.4970 H       2  LIG2        0.0235
     34    H      -69.8980  -90.8470  -12.9230 H       2  LIG2        0.0268
     35    H      -70.4240  -89.1820  -13.0630 H       2  LIG2        0.0268
     36    H      -70.4150  -92.1100  -10.5940 H       2  LIG2        0.0233
     37    H      -71.8290  -91.9380  -11.6310 H       2  LIG2        0.0233
     38    H      -71.9370  -91.5250   -9.9240 H       2  LIG2        0.0233
     39    H      -67.6160  -90.3350   -8.6550 H       2  LIG2        0.0257
     40    H      -66.1200  -89.4350   -8.5430 H       2  LIG2        0.0257
     41    H      -66.5410  -90.2340  -10.0350 H       2  LIG2        0.0257
     42    H      -67.0500  -86.7730  -10.5870 H       2  LIG2        0.2102
@<TRIPOS>BOND
     1    35    14    1
     2    34    14    1
     3    24    10    1
     4    14    10    1
     5    14     8    1
     6    10    25    1
     7    10     6    1
     8    37    15    1
     9    23     8    1
    10     8    15    1
    11     8     5    1
    12    20     6    1
    13    15    36    1
    14    15    38    1
    15     6     5    1
    16     6     9    1
    17    42     1    1
    18     1     9    1
    19    41    16    1
    20     5    19    1
    21     5     2    1
    22    17     2    1
    23     9    16    1
    24     9    11    1
    25    16    39    1
    26    16    40    1
    27     2     4    1
    28     2     3    1
    29    26    11    1
    30    11    27    1
    31    11     7    1
    32    30    12    1
    33     4     3    1
    34     4    18    1
    35     4     7    1
    36    29    12    1
    37     3    12    1
    38     3    13    1
    39    33    13    1
    40    12    28    1
    41     7    22    1
    42     7    21    1
    43    32    13    1
    44    13    31    1
@<TRIPOS>MOLECULE
11996452_3_run_24.pdb
 42 44 0 0 0
SMALL
GASTEIGER

@<TRIPOS>ATOM
      1    O      -66.2640  -89.5930   -8.9290 O.3     2  LIG2       -0.3886
      2    C      -70.7200  -89.9120   -7.9690 C.3     2  LIG2       -0.0289
      3    C      -71.9250  -89.6640   -8.8610 C.3     2  LIG2       -0.0284
      4    C      -70.7210  -90.3860   -9.4280 C.3     2  LIG2       -0.0319
      5    C      -69.7340  -88.7970   -7.5340 C.3     2  LIG2       -0.0294
      6    C      -68.2480  -89.2260   -7.6270 C.3     2  LIG2       -0.0090
      7    C      -69.7400  -89.7580  -10.4410 C.3     2  LIG2       -0.0468
      8    C      -69.9690  -88.3390   -6.0700 C.3     2  LIG2       -0.0404
      9    C      -67.5930  -89.1110   -9.0480 C.3     2  LIG2        0.0664
     10    C      -67.5580  -88.4110   -6.5150 C.3     2  LIG2       -0.0471
     11    C      -68.2550  -90.0300  -10.1150 C.3     2  LIG2       -0.0237
     12    C      -73.1750  -90.5190   -8.5770 C.3     2  LIG2       -0.0593
     13    C      -72.3040  -88.2410   -9.3310 C.3     2  LIG2       -0.0593
     14    C      -68.5880  -88.2900   -5.3950 C.3     2  LIG2       -0.0498
     15    C      -70.7630  -87.0250   -5.9520 C.3     2  LIG2       -0.0621
     16    C      -67.4570  -87.6660   -9.5960 C.3     2  LIG2       -0.0358
     17    H      -70.7920  -90.7000   -7.2190 H       2  LIG2        0.0312
     18    H      -70.8620  -91.4490   -9.6320 H       2  LIG2        0.0309
     19    H      -69.8450  -87.9220   -8.1680 H       2  LIG2        0.0310
     20    H      -68.1860  -90.2750   -7.3230 H       2  LIG2        0.0331
     21    H      -69.9540  -90.2040  -11.4140 H       2  LIG2        0.0269
     22    H      -69.9040  -88.6930  -10.5790 H       2  LIG2        0.0269
     23    H      -70.5420  -89.1030   -5.5420 H       2  LIG2        0.0301
     24    H      -66.6460  -88.8920   -6.1630 H       2  LIG2        0.0269
     25    H      -67.2840  -87.4130   -6.8580 H       2  LIG2        0.0269
     26    H      -68.1670  -91.0740   -9.8070 H       2  LIG2        0.0293
     27    H      -67.6920  -89.9560  -11.0490 H       2  LIG2        0.0293
     28    H      -73.7890  -90.6210   -9.4720 H       2  LIG2        0.0235
     29    H      -73.7890  -90.0660   -7.7980 H       2  LIG2        0.0235
     30    H      -72.9180  -91.5250   -8.2440 H       2  LIG2        0.0235
     31    H      -72.8960  -88.2860  -10.2460 H       2  LIG2        0.0235
     32    H      -71.4570  -87.5920   -9.5390 H       2  LIG2        0.0235
     33    H      -72.9080  -87.7360   -8.5760 H       2  LIG2        0.0235
     34    H      -68.4310  -87.3780   -4.8160 H       2  LIG2        0.0268
     35    H      -68.4820  -89.1250   -4.7010 H       2  LIG2        0.0268
     36    H      -70.2400  -86.1990   -6.4370 H       2  LIG2        0.0233
     37    H      -70.9190  -86.7510   -4.9080 H       2  LIG2        0.0233
     38    H      -71.7440  -87.1170   -6.4180 H       2  LIG2        0.0233
     39    H      -68.4180  -87.1590   -9.6780 H       2  LIG2        0.0257
     40    H      -67.0120  -87.6580  -10.5910 H       2  LIG2        0.0257
     41    H      -66.8180  -87.0410   -8.9720 H       2  LIG2        0.0257
     42    H      -65.7890  -89.0240   -8.3180 H       2  LIG2        0.2102
@<TRIPOS>BOND
     1    21     7    1
     2    27    11    1
     3    40    16    1
     4    22     7    1
     5     7    11    1
     6     7     4    1
     7    31    13    1
     8    11    26    1
     9    11     9    1
    10    39    16    1
    11    18     4    1
    12    16     9    1
    13    16    41    1
    14    32    13    1
    15    28    12    1
    16     4     3    1
    17     4     2    1
    18    13     3    1
    19    13    33    1
    20     9     1    1
    21     9     6    1
    22     1    42    1
    23     3    12    1
    24     3     2    1
    25    12    30    1
    26    12    29    1
    27    19     5    1
    28     2     5    1
    29     2    17    1
    30     6     5    1
    31     6    20    1
    32     6    10    1
    33     5     8    1
    34    25    10    1
    35    10    24    1
    36    10    14    1
    37    36    15    1
    38    38    15    1
    39     8    15    1
    40     8    23    1
    41     8    14    1
    42    15    37    1
    43    14    34    1
    44    14    35    1
@<TRIPOS>MOLECULE
11996452_3_run_20.pdb
 42 44 0 0 0
SMALL
GASTEIGER

@<TRIPOS>ATOM
      1    O      -66.2890  -89.4260   -9.0760 O.3     2  LIG2       -0.3886
      2    C      -69.8630  -88.9460   -6.2700 C.3     2  LIG2       -0.0289
      3    C      -70.7810  -90.0020   -5.6790 C.3     2  LIG2       -0.0284
      4    C      -69.2950  -90.2780   -5.7620 C.3     2  LIG2       -0.0319
      5    C      -69.7960  -88.6210   -7.7850 C.3     2  LIG2       -0.0294
      6    C      -68.3480  -88.4570   -8.3110 C.3     2  LIG2       -0.0090
      7    C      -68.6580  -91.2710   -6.7580 C.3     2  LIG2       -0.0468
      8    C      -70.5450  -87.3090   -8.1410 C.3     2  LIG2       -0.0404
      9    C      -67.5980  -89.7890   -8.6670 C.3     2  LIG2        0.0664
     10    C      -68.4880  -87.4500   -9.4690 C.3     2  LIG2       -0.0471
     11    C      -67.3860  -90.7300   -7.4460 C.3     2  LIG2       -0.0237
     12    C      -71.3540  -89.7080   -4.2800 C.3     2  LIG2       -0.0593
     13    C      -71.7930  -90.7770   -6.5550 C.3     2  LIG2       -0.0593
     14    C      -69.6080  -86.5000   -9.0550 C.3     2  LIG2       -0.0498
     15    C      -71.9460  -87.5370   -8.7350 C.3     2  LIG2       -0.0621
     16    C      -68.1950  -90.5830   -9.8580 C.3     2  LIG2       -0.0358
     17    H      -69.6280  -88.0720   -5.6610 H       2  LIG2        0.0312
     18    H      -68.7640  -90.2890   -4.8090 H       2  LIG2        0.0309
     19    H      -70.2500  -89.4190   -8.3650 H       2  LIG2        0.0310
     20    H      -67.7680  -87.9530   -7.5330 H       2  LIG2        0.0331
     21    H      -68.3770  -92.1590   -6.1890 H       2  LIG2        0.0269
     22    H      -69.3640  -91.6290   -7.5030 H       2  LIG2        0.0269
     23    H      -70.6780  -86.7150   -7.2350 H       2  LIG2        0.0301
     24    H      -67.5590  -86.9090   -9.6530 H       2  LIG2        0.0269
     25    H      -68.7630  -87.9420  -10.4010 H       2  LIG2        0.0269
     26    H      -66.7890  -90.2200   -6.6870 H       2  LIG2        0.0293
     27    H      -66.7860  -91.5880   -7.7570 H       2  LIG2        0.0293
     28    H      -71.6020  -90.6310   -3.7570 H       2  LIG2        0.0235
     29    H      -72.2600  -89.1050   -4.3470 H       2  LIG2        0.0235
     30    H      -70.6480  -89.1610   -3.6540 H       2  LIG2        0.0235
     31    H      -72.0510  -91.7290   -6.0900 H       2  LIG2        0.0235
     32    H      -71.4410  -91.0050   -7.5580 H       2  LIG2        0.0235
     33    H      -72.7160  -90.2070   -6.6690 H       2  LIG2        0.0235
     34    H      -70.1190  -86.0920   -9.9290 H       2  LIG2        0.0268
     35    H      -69.1940  -85.6520   -8.5080 H       2  LIG2        0.0268
     36    H      -71.8970  -88.1060   -9.6650 H       2  LIG2        0.0233
     37    H      -72.4410  -86.5900   -8.9530 H       2  LIG2        0.0233
     38    H      -72.5820  -88.0870   -8.0410 H       2  LIG2        0.0233
     39    H      -69.2310  -90.8710   -9.6900 H       2  LIG2        0.0257
     40    H      -67.6380  -91.5030  -10.0410 H       2  LIG2        0.0257
     41    H      -68.1660  -90.0200  -10.7910 H       2  LIG2        0.0257
     42    H      -65.8560  -88.9770   -8.3460 H       2  LIG2        0.2102
@<TRIPOS>BOND
     1    41    16    1
     2    25    10    1
     3    40    16    1
     4    34    14    1
     5    16    39    1
     6    16     9    1
     7    36    15    1
     8    24    10    1
     9    10    14    1
    10    10     6    1
    11     1     9    1
    12     1    42    1
    13    14    35    1
    14    14     8    1
    15    37    15    1
    16    15     8    1
    17    15    38    1
    18     9     6    1
    19     9    11    1
    20    19     5    1
    21     6     5    1
    22     6    20    1
    23     8     5    1
    24     8    23    1
    25     5     2    1
    26    27    11    1
    27    32    13    1
    28    22     7    1
    29    11     7    1
    30    11    26    1
    31     7    21    1
    32     7     4    1
    33    33    13    1
    34    13    31    1
    35    13     3    1
    36     2     4    1
    37     2     3    1
    38     2    17    1
    39     4     3    1
    40     4    18    1
    41     3    12    1
    42    29    12    1
    43    12    28    1
    44    12    30    1
@<TRIPOS>MOLECULE
11996452_3_run_7.pdb
 42 44 0 0 0
SMALL
GASTEIGER

@<TRIPOS>ATOM
      1    O      -72.8930  -86.1970   -6.9290 O.3     2  LIG2       -0.3886
      2    C      -68.8350  -87.8300   -8.2490 C.3     2  LIG2       -0.0289
      3    C      -68.5090  -88.9990   -9.1630 C.3     2  LIG2       -0.0284
      4    C      -69.6540  -88.0750   -9.5220 C.3     2  LIG2       -0.0319
      5    C      -69.5160  -87.9890   -6.8650 C.3     2  LIG2       -0.0294
      6    C      -70.6340  -86.9460   -6.6120 C.3     2  LIG2       -0.0090
      7    C      -71.1430  -88.4680   -9.4140 C.3     2  LIG2       -0.0468
      8    C      -68.5100  -87.8500   -5.6920 C.3     2  LIG2       -0.0404
      9    C      -72.0360  -87.2870   -7.2290 C.3     2  LIG2        0.0664
     10    C      -70.6160  -86.7510   -5.0830 C.3     2  LIG2       -0.0471
     11    C      -72.0280  -87.3720   -8.7820 C.3     2  LIG2       -0.0237
     12    C      -67.2270  -88.8730  -10.0070 C.3     2  LIG2       -0.0593
     13    C      -68.7620  -90.4610   -8.7270 C.3     2  LIG2       -0.0593
     14    C      -69.1560  -86.9030   -4.6660 C.3     2  LIG2       -0.0498
     15    C      -68.0620  -89.1970   -5.0970 C.3     2  LIG2       -0.0621
     16    C      -72.7340  -88.5350   -6.6280 C.3     2  LIG2       -0.0358
     17    H      -68.1750  -86.9610   -8.2750 H       2  LIG2        0.0312
     18    H      -69.4840  -87.4290  -10.3850 H       2  LIG2        0.0309
     19    H      -69.9780  -88.9680   -6.7790 H       2  LIG2        0.0310
     20    H      -70.3070  -85.9980   -7.0470 H       2  LIG2        0.0331
     21    H      -71.5030  -88.6420  -10.4290 H       2  LIG2        0.0269
     22    H      -71.2920  -89.4130   -8.8980 H       2  LIG2        0.0269
     23    H      -67.6090  -87.3460   -6.0490 H       2  LIG2        0.0301
     24    H      -71.0110  -85.7780   -4.7920 H       2  LIG2        0.0269
     25    H      -71.2140  -87.5060   -4.5730 H       2  LIG2        0.0269
     26    H      -71.7200  -86.4120   -9.2020 H       2  LIG2        0.0293
     27    H      -73.0500  -87.5260   -9.1360 H       2  LIG2        0.0293
     28    H      -67.2940  -89.4790  -10.9110 H       2  LIG2        0.0235
     29    H      -66.3540  -89.2060   -9.4440 H       2  LIG2        0.0235
     30    H      -67.0390  -87.8460  -10.3190 H       2  LIG2        0.0235
     31    H      -68.8690  -91.1060   -9.6000 H       2  LIG2        0.0235
     32    H      -69.6540  -90.6040   -8.1220 H       2  LIG2        0.0235
     33    H      -67.9220  -90.8370   -8.1430 H       2  LIG2        0.0235
     34    H      -69.0780  -87.2730   -3.6410 H       2  LIG2        0.0268
     35    H      -68.6600  -85.9320   -4.6880 H       2  LIG2        0.0268
     36    H      -68.9080  -89.7540   -4.6920 H       2  LIG2        0.0233
     37    H      -67.3440  -89.0510   -4.2890 H       2  LIG2        0.0233
     38    H      -67.5840  -89.8200   -5.8530 H       2  LIG2        0.0233
     39    H      -72.1410  -89.4410   -6.7410 H       2  LIG2        0.0257
     40    H      -73.6930  -88.7250   -7.1110 H       2  LIG2        0.0257
     41    H      -72.9470  -88.4230   -5.5650 H       2  LIG2        0.0257
     42    H      -72.5390  -85.4090   -7.3480 H       2  LIG2        0.2102
@<TRIPOS>BOND
     1    28    12    1
     2    21     7    1
     3    18     4    1
     4    30    12    1
     5    12    29    1
     6    12     3    1
     7    31    13    1
     8     4     7    1
     9     4     3    1
    10     4     2    1
    11     7    22    1
    12     7    11    1
    13    26    11    1
    14     3    13    1
    15     3     2    1
    16    27    11    1
    17    11     9    1
    18    13    33    1
    19    13    32    1
    20    17     2    1
    21     2     5    1
    22    42     1    1
    23     9     1    1
    24     9    16    1
    25     9     6    1
    26    40    16    1
    27    20     6    1
    28     5    19    1
    29     5     6    1
    30     5     8    1
    31    39    16    1
    32    16    41    1
    33     6    10    1
    34    23     8    1
    35    38    15    1
    36     8    15    1
    37     8    14    1
    38    15    36    1
    39    15    37    1
    40    10    24    1
    41    10    14    1
    42    10    25    1
    43    35    14    1
    44    14    34    1
@<TRIPOS>MOLECULE
11996452_3_run_22.pdb
 42 44 0 0 0
SMALL
GASTEIGER

@<TRIPOS>ATOM
      1    O      -70.6250  -89.4090  -12.5260 O.3     2  LIG2       -0.3886
      2    C      -69.5450  -88.8470   -8.1230 C.3     2  LIG2       -0.0289
      3    C      -68.2950  -89.2670   -7.3690 C.3     2  LIG2       -0.0284
      4    C      -68.1600  -88.6950   -8.7640 C.3     2  LIG2       -0.0319
      5    C      -70.5570  -89.8530   -8.7300 C.3     2  LIG2       -0.0294
      6    C      -71.0170  -89.4690  -10.1590 C.3     2  LIG2       -0.0090
      7    C      -67.7920  -89.5350  -10.0060 C.3     2  LIG2       -0.0468
      8    C      -71.8440  -89.9860   -7.8730 C.3     2  LIG2       -0.0404
      9    C      -70.0530  -89.8920  -11.3220 C.3     2  LIG2        0.0664
     10    C      -72.4480  -90.0350  -10.2500 C.3     2  LIG2       -0.0471
     11    C      -68.6540  -89.2150  -11.2470 C.3     2  LIG2       -0.0237
     12    C      -67.8600  -88.3590   -6.2030 C.3     2  LIG2       -0.0593
     13    C      -67.9880  -90.7540   -7.0760 C.3     2  LIG2       -0.0593
     14    C      -73.0330  -89.9030   -8.8470 C.3     2  LIG2       -0.0498
     15    C      -71.8650  -91.2360   -6.9750 C.3     2  LIG2       -0.0621
     16    C      -69.8980  -91.4210  -11.5260 C.3     2  LIG2       -0.0358
     17    H      -70.0320  -87.9160   -7.8290 H       2  LIG2        0.0312
     18    H      -67.7190  -87.6990   -8.8240 H       2  LIG2        0.0309
     19    H      -70.1140  -90.8420   -8.8010 H       2  LIG2        0.0310
     20    H      -71.1150  -88.3800  -10.1940 H       2  LIG2        0.0331
     21    H      -66.7550  -89.3050  -10.2530 H       2  LIG2        0.0269
     22    H      -67.8030  -90.6030   -9.8090 H       2  LIG2        0.0269
     23    H      -71.9270  -89.1210   -7.2130 H       2  LIG2        0.0301
     24    H      -73.0520  -89.4990  -10.9820 H       2  LIG2        0.0269
     25    H      -72.4480  -91.0850  -10.5400 H       2  LIG2        0.0269
     26    H      -68.7660  -88.1300  -11.3040 H       2  LIG2        0.0293
     27    H      -68.0760  -89.4920  -12.1320 H       2  LIG2        0.0293
     28    H      -66.7880  -88.4440   -6.0210 H       2  LIG2        0.0235
     29    H      -68.3790  -88.6280   -5.2830 H       2  LIG2        0.0235
     30    H      -68.0730  -87.3080   -6.3990 H       2  LIG2        0.0235
     31    H      -66.9190  -90.8990   -6.9170 H       2  LIG2        0.0235
     32    H      -68.2830  -91.4400   -7.8660 H       2  LIG2        0.0235
     33    H      -68.5010  -91.0800   -6.1700 H       2  LIG2        0.0235
     34    H      -73.7850  -90.6720   -8.6620 H       2  LIG2        0.0268
     35    H      -73.5350  -88.9400   -8.7420 H       2  LIG2        0.0268
     36    H      -71.8110  -92.1510   -7.5660 H       2  LIG2        0.0233
     37    H      -72.7780  -91.2790   -6.3800 H       2  LIG2        0.0233
     38    H      -71.0220  -91.2360   -6.2840 H       2  LIG2        0.0233
     39    H      -69.5170  -91.9240  -10.6380 H       2  LIG2        0.0257
     40    H      -69.2030  -91.6460  -12.3360 H       2  LIG2        0.0257
     41    H      -70.8380  -91.9050  -11.7890 H       2  LIG2        0.0257
     42    H      -70.7890  -88.4680  -12.4290 H       2  LIG2        0.2102
@<TRIPOS>BOND
     1     1    42    1
     2     1     9    1
     3    40    16    1
     4    27    11    1
     5    41    16    1
     6    16     9    1
     7    16    39    1
     8     9    11    1
     9     9     6    1
    10    26    11    1
    11    11     7    1
    12    24    10    1
    13    25    10    1
    14    21     7    1
    15    10     6    1
    16    10    14    1
    17    20     6    1
    18     6     5    1
    19     7    22    1
    20     7     4    1
    21    14    35    1
    22    14    34    1
    23    14     8    1
    24    18     4    1
    25    19     5    1
    26     4     2    1
    27     4     3    1
    28     5     2    1
    29     5     8    1
    30     2    17    1
    31     2     3    1
    32     8    23    1
    33     8    15    1
    34    32    13    1
    35    36    15    1
    36     3    13    1
    37     3    12    1
    38    13    31    1
    39    13    33    1
    40    15    37    1
    41    15    38    1
    42    30    12    1
    43    12    28    1
    44    12    29    1
@<TRIPOS>MOLECULE
11996452_3_run_2.pdb
 42 44 0 0 0
SMALL
GASTEIGER

@<TRIPOS>ATOM
      1    O      -69.7540  -88.9090  -11.5290 O.3     2  LIG2       -0.3886
      2    C      -70.7320  -87.5940   -7.2650 C.3     2  LIG2       -0.0289
      3    C      -69.7990  -87.2540   -6.1150 C.3     2  LIG2       -0.0284
      4    C      -69.4530  -86.7850   -7.5120 C.3     2  LIG2       -0.0319
      5    C      -70.8620  -89.0140   -7.8720 C.3     2  LIG2       -0.0294
      6    C      -70.8970  -89.0160   -9.4210 C.3     2  LIG2       -0.0090
      7    C      -68.3160  -87.3870   -8.3660 C.3     2  LIG2       -0.0468
      8    C      -72.1490  -89.7430   -7.4020 C.3     2  LIG2       -0.0404
      9    C      -69.5010  -88.9480  -10.1340 C.3     2  LIG2        0.0664
     10    C      -71.7560  -90.2470   -9.7690 C.3     2  LIG2       -0.0471
     11    C      -68.7130  -87.6390   -9.8360 C.3     2  LIG2       -0.0237
     12    C      -70.2910  -86.1820   -5.1260 C.3     2  LIG2       -0.0593
     13    C      -68.9640  -88.3440   -5.4030 C.3     2  LIG2       -0.0593
     14    C      -72.7970  -90.3510   -8.6580 C.3     2  LIG2       -0.0498
     15    C      -71.9070  -90.7630   -6.2740 C.3     2  LIG2       -0.0621
     16    C      -68.5890  -90.1840   -9.9160 C.3     2  LIG2       -0.0358
     17    H      -71.6650  -87.0340   -7.3480 H       2  LIG2        0.0312
     18    H      -69.5390  -85.7100   -7.6820 H       2  LIG2        0.0309
     19    H      -70.0170  -89.6310   -7.5790 H       2  LIG2        0.0310
     20    H      -71.4700  -88.1410   -9.7400 H       2  LIG2        0.0331
     21    H      -67.4960  -86.6680   -8.3610 H       2  LIG2        0.0269
     22    H      -67.8980  -88.2910   -7.9300 H       2  LIG2        0.0269
     23    H      -72.8580  -89.0070   -7.0160 H       2  LIG2        0.0301
     24    H      -72.2300  -90.1500  -10.7460 H       2  LIG2        0.0269
     25    H      -71.1620  -91.1600   -9.7890 H       2  LIG2        0.0269
     26    H      -69.2880  -86.7770  -10.1790 H       2  LIG2        0.0293
     27    H      -67.7980  -87.6310  -10.4330 H       2  LIG2        0.0293
     28    H      -69.4510  -85.6860   -4.6380 H       2  LIG2        0.0235
     29    H      -70.9170  -86.6240   -4.3500 H       2  LIG2        0.0235
     30    H      -70.8820  -85.4090   -5.6170 H       2  LIG2        0.0235
     31    H      -68.0890  -87.9030   -4.9230 H       2  LIG2        0.0235
     32    H      -68.5970  -89.1310   -6.0570 H       2  LIG2        0.0235
     33    H      -69.5530  -88.8310   -4.6260 H       2  LIG2        0.0235
     34    H      -73.1130  -91.3850   -8.5120 H       2  LIG2        0.0268
     35    H      -73.6890  -89.7840   -8.9290 H       2  LIG2        0.0268
     36    H      -71.2240  -91.5520   -6.5910 H       2  LIG2        0.0233
     37    H      -72.8400  -91.2360   -5.9640 H       2  LIG2        0.0233
     38    H      -71.4760  -90.2810   -5.3960 H       2  LIG2        0.0233
     39    H      -68.3680  -90.3590   -8.8650 H       2  LIG2        0.0257
     40    H      -67.6310  -90.0650  -10.4240 H       2  LIG2        0.0257
     41    H      -69.0290  -91.1010  -10.3090 H       2  LIG2        0.0257
     42    H      -70.2890  -88.1350  -11.7200 H       2  LIG2        0.2102
@<TRIPOS>BOND
     1    42     1    1
     2     1     9    1
     3    24    10    1
     4    27    11    1
     5    40    16    1
     6    41    16    1
     7    26    11    1
     8     9    16    1
     9     9    11    1
    10     9     6    1
    11    16    39    1
    12    11     7    1
    13    25    10    1
    14    10     6    1
    15    10    14    1
    16    20     6    1
    17     6     5    1
    18    35    14    1
    19    14    34    1
    20    14     8    1
    21     7    21    1
    22     7    22    1
    23     7     4    1
    24     5    19    1
    25     5     8    1
    26     5     2    1
    27    18     4    1
    28     4     2    1
    29     4     3    1
    30     8    23    1
    31     8    15    1
    32    17     2    1
    33     2     3    1
    34    36    15    1
    35    15    37    1
    36    15    38    1
    37     3    13    1
    38     3    12    1
    39    32    13    1
    40    30    12    1
    41    13    31    1
    42    13    33    1
    43    12    28    1
    44    12    29    1
@<TRIPOS>MOLECULE
11996452_3_run_4.pdb
 42 44 0 0 0
SMALL
GASTEIGER

@<TRIPOS>ATOM
      1    O      -66.9950  -91.1840   -6.8380 O.3     2  LIG2       -0.3886
      2    C      -68.9990  -87.1910   -5.8770 C.3     2  LIG2       -0.0289
      3    C      -70.2500  -86.9040   -5.0640 C.3     2  LIG2       -0.0284
      4    C      -69.2760  -87.9550   -4.5760 C.3     2  LIG2       -0.0319
      5    C      -69.0110  -87.9580   -7.2240 C.3     2  LIG2       -0.0294
      6    C      -67.8780  -89.0080   -7.3400 C.3     2  LIG2       -0.0090
      7    C      -69.5540  -89.4730   -4.6200 C.3     2  LIG2       -0.0468
      8    C      -68.8600  -87.0110   -8.4450 C.3     2  LIG2       -0.0404
      9    C      -68.1620  -90.3950   -6.6640 C.3     2  LIG2        0.0664
     10    C      -67.5760  -89.0600   -8.8500 C.3     2  LIG2       -0.0471
     11    C      -68.3560  -90.3080   -5.1220 C.3     2  LIG2       -0.0237
     12    C      -70.2760  -85.5710   -4.2930 C.3     2  LIG2       -0.0593
     13    C      -71.6560  -87.2890   -5.5810 C.3     2  LIG2       -0.0593
     14    C      -67.8000  -87.6410   -9.3640 C.3     2  LIG2       -0.0498
     15    C      -70.1900  -86.6990   -9.1540 C.3     2  LIG2       -0.0621
     16    C      -69.3110  -91.2160   -7.3040 C.3     2  LIG2       -0.0358
     17    H      -68.1830  -86.4690   -5.8330 H       2  LIG2        0.0312
     18    H      -68.7060  -87.6900   -3.6830 H       2  LIG2        0.0309
     19    H      -69.9470  -88.4960   -7.3480 H       2  LIG2        0.0310
     20    H      -66.9870  -88.5880   -6.8630 H       2  LIG2        0.0331
     21    H      -69.7750  -89.7890   -3.5990 H       2  LIG2        0.0269
     22    H      -70.4470  -89.7200   -5.1880 H       2  LIG2        0.0269
     23    H      -68.4480  -86.0570   -8.1100 H       2  LIG2        0.0301
     24    H      -66.5590  -89.3970   -9.0510 H       2  LIG2        0.0269
     25    H      -68.2480  -89.7400   -9.3730 H       2  LIG2        0.0269
     26    H      -67.4530  -89.9060   -4.6590 H       2  LIG2        0.0293
     27    H      -68.4630  -91.3180   -4.7190 H       2  LIG2        0.0293
     28    H      -70.9380  -85.6330   -3.4290 H       2  LIG2        0.0235
     29    H      -70.6280  -84.7580   -4.9290 H       2  LIG2        0.0235
     30    H      -69.2890  -85.2900   -3.9250 H       2  LIG2        0.0235
     31    H      -72.3530  -87.3950   -4.7480 H       2  LIG2        0.0235
     32    H      -71.6930  -88.2210   -6.1390 H       2  LIG2        0.0235
     33    H      -72.0480  -86.5130   -6.2390 H       2  LIG2        0.0235
     34    H      -68.1010  -87.6470  -10.4140 H       2  LIG2        0.0268
     35    H      -66.8710  -87.0730   -9.3070 H       2  LIG2        0.0268
     36    H      -70.6560  -87.6050   -9.5440 H       2  LIG2        0.0233
     37    H      -70.0390  -86.0170   -9.9930 H       2  LIG2        0.0233
     38    H      -70.8980  -86.2270   -8.4720 H       2  LIG2        0.0233
     39    H      -70.2620  -90.6860   -7.2870 H       2  LIG2        0.0257
     40    H      -69.4670  -92.1590   -6.7770 H       2  LIG2        0.0257
     41    H      -69.1090  -91.4780   -8.3420 H       2  LIG2        0.0257
     42    H      -66.2560  -90.7270   -6.4290 H       2  LIG2        0.2102
@<TRIPOS>BOND
     1    34    14    1
     2    37    15    1
     3    36    15    1
     4    25    10    1
     5    14    35    1
     6    14    10    1
     7    14     8    1
     8    15    38    1
     9    15     8    1
    10    24    10    1
    11    10     6    1
    12     8    23    1
    13     8     5    1
    14    41    16    1
    15    19     5    1
    16     6     5    1
    17     6    20    1
    18     6     9    1
    19    16    39    1
    20    16    40    1
    21    16     9    1
    22     5     2    1
    23     1     9    1
    24     1    42    1
    25     9    11    1
    26    33    13    1
    27    32    13    1
    28     2    17    1
    29     2     3    1
    30     2     4    1
    31    13     3    1
    32    13    31    1
    33    22     7    1
    34    11    27    1
    35    11    26    1
    36    11     7    1
    37     3     4    1
    38     3    12    1
    39    29    12    1
    40     7     4    1
    41     7    21    1
    42     4    18    1
    43    12    30    1
    44    12    28    1
@<TRIPOS>MOLECULE
11996452_3_run_4.pdb
 42 44 0 0 0
SMALL
GASTEIGER

@<TRIPOS>ATOM
      1    O      -61.6400  -70.6590  -11.4290 O.3     2  LIG2       -0.3886
      2    C      -59.3250  -70.8010   -7.4920 C.3     2  LIG2       -0.0289
      3    C      -58.1030  -71.6210   -7.1140 C.3     2  LIG2       -0.0284
      4    C      -58.1770  -70.9960   -8.4910 C.3     2  LIG2       -0.0319
      5    C      -60.7110  -71.4230   -7.8000 C.3     2  LIG2       -0.0294
      6    C      -61.3950  -70.8050   -9.0450 C.3     2  LIG2       -0.0090
      7    C      -58.4140  -71.7970   -9.7880 C.3     2  LIG2       -0.0468
      8    C      -61.7080  -71.2560   -6.6220 C.3     2  LIG2       -0.0404
      9    C      -60.9410  -71.3840  -10.4300 C.3     2  LIG2        0.0664
     10    C      -62.9010  -70.9310   -8.7400 C.3     2  LIG2       -0.0471
     11    C      -59.4360  -71.1420  -10.7430 C.3     2  LIG2       -0.0237
     12    C      -57.1280  -70.9770   -6.1110 C.3     2  LIG2       -0.0593
     13    C      -58.1860  -73.1530   -6.9210 C.3     2  LIG2       -0.0593
     14    C      -63.0300  -70.7570   -7.2290 C.3     2  LIG2       -0.0498
     15    C      -61.8620  -72.5200   -5.7570 C.3     2  LIG2       -0.0621
     16    C      -61.3060  -72.8720  -10.6730 C.3     2  LIG2       -0.0358
     17    H      -59.4180  -69.7990   -7.0730 H       2  LIG2        0.0312
     18    H      -57.4920  -70.1650   -8.6670 H       2  LIG2        0.0309
     19    H      -60.6170  -72.4880   -7.9930 H       2  LIG2        0.0310
     20    H      -61.1710  -69.7340   -9.0490 H       2  LIG2        0.0331
     21    H      -57.4580  -71.8520  -10.3110 H       2  LIG2        0.0269
     22    H      -58.6890  -72.8320   -9.5990 H       2  LIG2        0.0269
     23    H      -61.3540  -70.4620   -5.9620 H       2  LIG2        0.0301
     24    H      -63.4890  -70.1850   -9.2750 H       2  LIG2        0.0269
     25    H      -63.2890  -71.9090   -9.0210 H       2  LIG2        0.0269
     26    H      -59.2320  -70.0700  -10.7630 H       2  LIG2        0.0293
     27    H      -59.2200  -71.4960  -11.7540 H       2  LIG2        0.0293
     28    H      -56.1220  -71.3780   -6.2320 H       2  LIG2        0.0235
     29    H      -57.4430  -71.1640   -5.0840 H       2  LIG2        0.0235
     30    H      -57.0630  -69.8960   -6.2380 H       2  LIG2        0.0235
     31    H      -57.2050  -73.6100   -7.0640 H       2  LIG2        0.0235
     32    H      -58.8670  -73.6590   -7.6010 H       2  LIG2        0.0235
     33    H      -58.5150  -73.3960   -5.9100 H       2  LIG2        0.0235
     34    H      -63.9010  -71.2930   -6.8460 H       2  LIG2        0.0268
     35    H      -63.1780  -69.7040   -6.9870 H       2  LIG2        0.0268
     36    H      -62.2390  -73.3600   -6.3420 H       2  LIG2        0.0233
     37    H      -62.5560  -72.3520   -4.9330 H       2  LIG2        0.0233
     38    H      -60.9060  -72.8180   -5.3240 H       2  LIG2        0.0233
     39    H      -60.8730  -73.5360   -9.9270 H       2  LIG2        0.0257
     40    H      -60.9470  -73.2160  -11.6450 H       2  LIG2        0.0257
     41    H      -62.3820  -73.0440  -10.6690 H       2  LIG2        0.0257
     42    H      -61.4950  -71.0900  -12.2750 H       2  LIG2        0.2102
@<TRIPOS>BOND
     1    42     1    1
     2    27    11    1
     3    40    16    1
     4     1     9    1
     5    26    11    1
     6    11     9    1
     7    11     7    1
     8    16    41    1
     9    16     9    1
    10    16    39    1
    11     9     6    1
    12    21     7    1
    13     7    22    1
    14     7     4    1
    15    24    10    1
    16    20     6    1
    17     6    10    1
    18     6     5    1
    19    25    10    1
    20    10    14    1
    21    18     4    1
    22     4     2    1
    23     4     3    1
    24    19     5    1
    25     5     2    1
    26     5     8    1
    27    32    13    1
    28     2     3    1
    29     2    17    1
    30    14    35    1
    31    14    34    1
    32    14     8    1
    33     3    13    1
    34     3    12    1
    35    31    13    1
    36    13    33    1
    37     8    23    1
    38     8    15    1
    39    36    15    1
    40    30    12    1
    41    28    12    1
    42    12    29    1
    43    15    38    1
    44    15    37    1
@<TRIPOS>MOLECULE
11996452_3_run_4.pdb
 42 44 0 0 0
SMALL
GASTEIGER

@<TRIPOS>ATOM
      1    O      -70.2890  -85.6740   -6.7960 O.3     2  LIG2       -0.3886
      2    C      -71.2270  -89.0850   -9.6860 C.3     2  LIG2       -0.0289
      3    C      -72.1190  -90.3010   -9.4970 C.3     2  LIG2       -0.0284
      4    C      -72.5770  -88.9570   -8.9690 C.3     2  LIG2       -0.0319
      5    C      -69.9180  -88.8510   -8.8890 C.3     2  LIG2       -0.0294
      6    C      -69.7620  -87.3950   -8.3850 C.3     2  LIG2       -0.0090
      7    C      -72.6190  -88.5910   -7.4700 C.3     2  LIG2       -0.0468
      8    C      -68.6510  -89.1650   -9.7280 C.3     2  LIG2       -0.0404
      9    C      -70.5170  -87.0500   -7.0530 C.3     2  LIG2        0.0664
     10    C      -68.2370  -87.1760   -8.3540 C.3     2  LIG2       -0.0471
     11    C      -72.0630  -87.1840   -7.1610 C.3     2  LIG2       -0.0237
     12    C      -72.8330  -90.8300  -10.7550 C.3     2  LIG2       -0.0593
     13    C      -71.7270  -91.4500   -8.5390 C.3     2  LIG2       -0.0593
     14    C      -67.6810  -87.9890   -9.5210 C.3     2  LIG2       -0.0498
     15    C      -68.0310  -90.5400   -9.4240 C.3     2  LIG2       -0.0621
     16    C      -70.0010  -87.7930   -5.7930 C.3     2  LIG2       -0.0358
     17    H      -71.1780  -88.6360  -10.6790 H       2  LIG2        0.0312
     18    H      -73.4120  -88.5010   -9.5040 H       2  LIG2        0.0309
     19    H      -69.8890  -89.4900   -8.0110 H       2  LIG2        0.0310
     20    H      -70.1520  -86.7320   -9.1630 H       2  LIG2        0.0331
     21    H      -73.6660  -88.6100   -7.1640 H       2  LIG2        0.0269
     22    H      -72.1310  -89.3320   -6.8430 H       2  LIG2        0.0269
     23    H      -68.9130  -89.1640  -10.7880 H       2  LIG2        0.0301
     24    H      -67.9740  -86.1220   -8.4470 H       2  LIG2        0.0269
     25    H      -67.7970  -87.5370   -7.4250 H       2  LIG2        0.0269
     26    H      -72.4390  -86.5020   -7.9260 H       2  LIG2        0.0293
     27    H      -72.5160  -86.8470   -6.2250 H       2  LIG2        0.0293
     28    H      -73.7460  -91.3640  -10.4900 H       2  LIG2        0.0235
     29    H      -72.1910  -91.5170  -11.3080 H       2  LIG2        0.0235
     30    H      -73.1130  -90.0280  -11.4370 H       2  LIG2        0.0235
     31    H      -72.6130  -91.9980   -8.2180 H       2  LIG2        0.0235
     32    H      -71.2130  -91.1300   -7.6360 H       2  LIG2        0.0235
     33    H      -71.0680  -92.1590   -9.0410 H       2  LIG2        0.0235
     34    H      -66.6590  -88.3140   -9.3200 H       2  LIG2        0.0268
     35    H      -67.6450  -87.3720  -10.4200 H       2  LIG2        0.0268
     36    H      -67.7170  -90.6140   -8.3820 H       2  LIG2        0.0233
     37    H      -67.1550  -90.7250  -10.0470 H       2  LIG2        0.0233
     38    H      -68.7440  -91.3430   -9.6130 H       2  LIG2        0.0233
     39    H      -70.0670  -88.8760   -5.8910 H       2  LIG2        0.0257
     40    H      -70.5780  -87.5220   -4.9080 H       2  LIG2        0.0257
     41    H      -68.9630  -87.5550   -5.5640 H       2  LIG2        0.0257
     42    H      -70.7950  -85.1590   -7.4290 H       2  LIG2        0.2102
@<TRIPOS>BOND
     1    30    12    1
     2    29    12    1
     3    23     8    1
     4    12    28    1
     5    12     3    1
     6    17     2    1
     7    35    14    1
     8    37    15    1
     9     8    14    1
    10     8    15    1
    11     8     5    1
    12     2     3    1
    13     2     4    1
    14     2     5    1
    15    38    15    1
    16    14    34    1
    17    14    10    1
    18    18     4    1
    19     3     4    1
    20     3    13    1
    21    15    36    1
    22    20     6    1
    23    33    13    1
    24     4     7    1
    25     5     6    1
    26     5    19    1
    27    13    31    1
    28    13    32    1
    29    24    10    1
    30     6    10    1
    31     6     9    1
    32    10    25    1
    33    26    11    1
    34     7    21    1
    35     7    11    1
    36     7    22    1
    37    42     1    1
    38    11     9    1
    39    11    27    1
    40     9     1    1
    41     9    16    1
    42    39    16    1
    43    16    41    1
    44    16    40    1
@<TRIPOS>MOLECULE
11996452_3_run_6.pdb
 42 44 0 0 0
SMALL
GASTEIGER

@<TRIPOS>ATOM
      1    O      -65.5270  -83.2120  -16.4550 O.3     2  LIG2       -0.3886
      2    C      -62.8120  -81.5100  -13.1990 C.3     2  LIG2       -0.0289
      3    C      -61.9980  -80.2270  -13.1860 C.3     2  LIG2       -0.0284
      4    C      -63.3930  -80.2120  -13.7750 C.3     2  LIG2       -0.0319
      5    C      -62.5210  -82.6990  -14.1500 C.3     2  LIG2       -0.0294
      6    C      -63.7990  -83.2960  -14.7900 C.3     2  LIG2       -0.0090
      7    C      -63.6880  -80.1070  -15.2860 C.3     2  LIG2       -0.0468
      8    C      -61.8020  -83.8710  -13.4290 C.3     2  LIG2       -0.0404
      9    C      -64.3400  -82.5460  -16.0580 C.3     2  LIG2        0.0664
     10    C      -63.4460  -84.7810  -15.0040 C.3     2  LIG2       -0.0471
     11    C      -64.7830  -81.0810  -15.7730 C.3     2  LIG2       -0.0237
     12    C      -61.8160  -79.5440  -11.8180 C.3     2  LIG2       -0.0593
     13    C      -60.7470  -80.0550  -14.0780 C.3     2  LIG2       -0.0593
     14    C      -62.5350  -85.1590  -13.8400 C.3     2  LIG2       -0.0498
     15    C      -60.2840  -83.9140  -13.6800 C.3     2  LIG2       -0.0621
     16    C      -63.4090  -82.5920  -17.2980 C.3     2  LIG2       -0.0358
     17    H      -63.2520  -81.8460  -12.2590 H       2  LIG2        0.0312
     18    H      -64.1430  -79.6730  -13.1930 H       2  LIG2        0.0309
     19    H      -61.8800  -82.3840  -14.9680 H       2  LIG2        0.0310
     20    H      -64.5890  -83.2740  -14.0350 H       2  LIG2        0.0331
     21    H      -64.0390  -79.0910  -15.4740 H       2  LIG2        0.0269
     22    H      -62.7950  -80.2120  -15.8970 H       2  LIG2        0.0269
     23    H      -61.9410  -83.7680  -12.3510 H       2  LIG2        0.0301
     24    H      -64.3350  -85.4110  -15.0310 H       2  LIG2        0.0269
     25    H      -62.9120  -84.9380  -15.9410 H       2  LIG2        0.0269
     26    H      -65.5850  -81.0770  -15.0330 H       2  LIG2        0.0293
     27    H      -65.2230  -80.6590  -16.6790 H       2  LIG2        0.0293
     28    H      -61.6410  -78.4740  -11.9360 H       2  LIG2        0.0235
     29    H      -60.9660  -79.9660  -11.2800 H       2  LIG2        0.0235
     30    H      -62.6920  -79.6610  -11.1800 H       2  LIG2        0.0235
     31    H      -60.5460  -78.9970  -14.2540 H       2  LIG2        0.0235
     32    H      -60.8200  -80.5250  -15.0560 H       2  LIG2        0.0235
     33    H      -59.8670  -80.4780  -13.5920 H       2  LIG2        0.0235
     34    H      -61.8520  -85.9630  -14.1210 H       2  LIG2        0.0268
     35    H      -63.1320  -85.5310  -13.0060 H       2  LIG2        0.0268
     36    H      -60.0590  -84.0420  -14.7390 H       2  LIG2        0.0233
     37    H      -59.8190  -84.7410  -13.1410 H       2  LIG2        0.0233
     38    H      -59.8040  -82.9930  -13.3460 H       2  LIG2        0.0233
     39    H      -62.4300  -82.1580  -17.1010 H       2  LIG2        0.0257
     40    H      -63.8360  -82.0390  -18.1360 H       2  LIG2        0.0257
     41    H      -63.2430  -83.6070  -17.6570 H       2  LIG2        0.0257
     42    H      -65.2960  -84.0980  -16.7440 H       2  LIG2        0.2102
@<TRIPOS>BOND
     1    40    16    1
     2    41    16    1
     3    16    39    1
     4    16     9    1
     5    42     1    1
     6    27    11    1
     7     1     9    1
     8     9    11    1
     9     9     6    1
    10    25    10    1
    11    22     7    1
    12    11     7    1
    13    11    26    1
    14    21     7    1
    15     7     4    1
    16    32    13    1
    17    24    10    1
    18    10     6    1
    19    10    14    1
    20    19     5    1
    21     6     5    1
    22     6    20    1
    23    36    15    1
    24    31    13    1
    25     5     8    1
    26     5     2    1
    27    34    14    1
    28    13    33    1
    29    13     3    1
    30    14     8    1
    31    14    35    1
    32     4     2    1
    33     4    18    1
    34     4     3    1
    35    15     8    1
    36    15    38    1
    37    15    37    1
    38     8    23    1
    39     2     3    1
    40     2    17    1
    41     3    12    1
    42    28    12    1
    43    12    29    1
    44    12    30    1
