@<TRIPOS>MOLECULE
5281519_run_8.pdb
 39 39 0 0 0
SMALL
GASTEIGER

@<TRIPOS>ATOM
      1    C      -61.7230  -83.1960  -17.1170 C.3     2  LIG2       -0.0275
      2    C      -62.8440  -84.1840  -16.7240 C.2     2  LIG2       -0.0668
      3    C      -62.1300  -81.7080  -17.3450 C.3     2  LIG2       -0.0283
      4    C      -62.8220  -84.6190  -15.2420 C.3     2  LIG2       -0.0130
      5    C      -62.4450  -80.9340  -16.0700 C.2     2  LIG2       -0.0762
      6    C      -64.0480  -81.4790  -13.2280 C.3     2  LIG2       -0.0286
      7    C      -64.1930  -80.3390  -14.2830 C.3     2  LIG2       -0.0308
      8    C      -64.1050  -82.8810  -13.8380 C.2     2  LIG2       -0.0759
      9    C      -63.7550  -84.6420  -17.6300 C.2     2  LIG2       -0.0762
     10    C      -62.9640  -83.4550  -14.2810 C.2     2  LIG2       -0.0810
     11    C      -63.7230  -80.7450  -15.6790 C.2     2  LIG2       -0.0847
     12    C      -61.2310  -80.5230  -15.2440 C.3     2  LIG2       -0.0438
     13    C      -65.5070  -83.4090  -14.1110 C.3     2  LIG2       -0.0438
     14    C      -63.7880  -84.2140  -19.0960 C.3     2  LIG2       -0.0438
     15    C      -64.8530  -85.6580  -17.3230 C.3     2  LIG2       -0.0438
     16    H      -60.9130  -83.2580  -16.3890 H       2  LIG2        0.0313
     17    H      -61.2630  -83.5700  -18.0320 H       2  LIG2        0.0313
     18    H      -61.3270  -81.1840  -17.8650 H       2  LIG2        0.0313
     19    H      -62.9850  -81.6590  -18.0200 H       2  LIG2        0.0313
     20    H      -63.5980  -85.3370  -15.0010 H       2  LIG2        0.0352
     21    H      -61.8870  -85.1410  -15.0360 H       2  LIG2        0.0352
     22    H      -63.0830  -81.3610  -12.7310 H       2  LIG2        0.0313
     23    H      -64.7900  -81.3780  -12.4340 H       2  LIG2        0.0313
     24    H      -65.2450  -80.0630  -14.3730 H       2  LIG2        0.0310
     25    H      -63.6820  -79.4350  -13.9520 H       2  LIG2        0.0310
     26    H      -62.0290  -82.9590  -14.0660 H       2  LIG2        0.0575
     27    H      -64.5130  -81.1020  -16.3240 H       2  LIG2        0.0572
     28    H      -60.5810  -81.3760  -15.0490 H       2  LIG2        0.0274
     29    H      -61.5020  -80.0920  -14.2820 H       2  LIG2        0.0274
     30    H      -60.6540  -79.7720  -15.7860 H       2  LIG2        0.0274
     31    H      -65.9890  -83.6820  -13.1720 H       2  LIG2        0.0274
     32    H      -65.5130  -84.2880  -14.7510 H       2  LIG2        0.0274
     33    H      -66.1140  -82.6460  -14.5990 H       2  LIG2        0.0274
     34    H      -63.6780  -85.0820  -19.7460 H       2  LIG2        0.0274
     35    H      -63.0070  -83.5120  -19.3790 H       2  LIG2        0.0274
     36    H      -64.7420  -83.7370  -19.3210 H       2  LIG2        0.0274
     37    H      -65.0210  -86.3160  -18.1770 H       2  LIG2        0.0274
     38    H      -65.7890  -85.1400  -17.1190 H       2  LIG2        0.0274
     39    H      -64.6350  -86.3140  -16.4830 H       2  LIG2        0.0274
@<TRIPOS>BOND
     1    34    14    1
     2    35    14    1
     3    36    14    1
     4    14     9    1
     5    37    15    1
     6    17     1    1
     7    19     3    1
     8    18     3    1
     9     9    15    1
    10     9     2    2
    11     3     1    1
    12     3     5    1
    13    15    38    1
    14    15    39    1
    15     1     2    1
    16     1    16    1
    17     2     4    1
    18    27    11    1
    19     5    11    2
    20     5    12    1
    21    30    12    1
    22    11     7    1
    23    12    28    1
    24    12    29    1
    25     4    21    1
    26     4    20    1
    27     4    10    1
    28    32    13    1
    29    33    13    1
    30    24     7    1
    31     7    25    1
    32     7     6    1
    33    10    26    1
    34    10     8    2
    35    13     8    1
    36    13    31    1
    37     8     6    1
    38     6    22    1
    39     6    23    1
@<TRIPOS>MOLECULE
5281519_run_6.pdb
 39 39 0 0 0
SMALL
GASTEIGER

@<TRIPOS>ATOM
      1    C      -63.5810  -79.2560  -13.6910 C.3     2  LIG2       -0.0275
      2    C      -62.4030  -79.8630  -12.8980 C.2     2  LIG2       -0.0668
      3    C      -63.4960  -79.3120  -15.2480 C.3     2  LIG2       -0.0283
      4    C      -62.7150  -81.2190  -12.2270 C.3     2  LIG2       -0.0130
      5    C      -63.7290  -80.6950  -15.8470 C.2     2  LIG2       -0.0762
      6    C      -62.8610  -83.8150  -15.1700 C.3     2  LIG2       -0.0286
      7    C      -62.7170  -82.9720  -16.4750 C.3     2  LIG2       -0.0308
      8    C      -62.3090  -83.1100  -13.9290 C.2     2  LIG2       -0.0759
      9    C      -61.2000  -79.2280  -12.7890 C.2     2  LIG2       -0.0762
     10    C      -63.1180  -82.2920  -13.2190 C.2     2  LIG2       -0.0810
     11    C      -62.6860  -81.4660  -16.2210 C.2     2  LIG2       -0.0847
     12    C      -65.1810  -81.1590  -15.8630 C.3     2  LIG2       -0.0438
     13    C      -60.8010  -83.2150  -13.7460 C.3     2  LIG2       -0.0438
     14    C      -60.8800  -77.8890  -13.4520 C.3     2  LIG2       -0.0438
     15    C      -60.0140  -79.7430  -11.9770 C.3     2  LIG2       -0.0438
     16    H      -64.5160  -79.7000  -13.3490 H       2  LIG2        0.0313
     17    H      -63.6750  -78.2130  -13.3910 H       2  LIG2        0.0313
     18    H      -64.2330  -78.6330  -15.6790 H       2  LIG2        0.0313
     19    H      -62.5300  -78.9320  -15.5790 H       2  LIG2        0.0313
     20    H      -61.8820  -81.6060  -11.6490 H       2  LIG2        0.0352
     21    H      -63.5170  -81.0830  -11.5010 H       2  LIG2        0.0352
     22    H      -63.9220  -84.0110  -15.0080 H       2  LIG2        0.0313
     23    H      -62.4050  -84.8000  -15.2840 H       2  LIG2        0.0313
     24    H      -61.7780  -83.2280  -16.9670 H       2  LIG2        0.0310
     25    H      -63.5000  -83.2260  -17.1910 H       2  LIG2        0.0310
     26    H      -64.1670  -82.2680  -13.4750 H       2  LIG2        0.0575
     27    H      -61.6900  -81.0530  -16.1420 H       2  LIG2        0.0572
     28    H      -65.6360  -81.0640  -14.8770 H       2  LIG2        0.0274
     29    H      -65.2890  -82.1970  -16.1740 H       2  LIG2        0.0274
     30    H      -65.7550  -80.5490  -16.5620 H       2  LIG2        0.0274
     31    H      -60.5370  -84.2220  -13.4230 H       2  LIG2        0.0274
     32    H      -60.4130  -82.5200  -13.0050 H       2  LIG2        0.0274
     33    H      -60.2870  -83.0100  -14.6850 H       2  LIG2        0.0274
     34    H      -60.6010  -77.1520  -12.7000 H       2  LIG2        0.0274
     35    H      -61.7020  -77.4600  -14.0200 H       2  LIG2        0.0274
     36    H      -60.0440  -78.0080  -14.1410 H       2  LIG2        0.0274
     37    H      -59.4710  -78.9160  -11.5170 H       2  LIG2        0.0274
     38    H      -59.3190  -80.2680  -12.6310 H       2  LIG2        0.0274
     39    H      -60.2840  -80.4090  -11.1600 H       2  LIG2        0.0274
@<TRIPOS>BOND
     1    25     7    1
     2    24     7    1
     3    30    12    1
     4     7    11    1
     5     7     6    1
     6    11    27    1
     7    11     5    2
     8    29    12    1
     9    12     5    1
    10    12    28    1
    11     5     3    1
    12    18     3    1
    13    19     3    1
    14    23     6    1
    15     3     1    1
    16     6    22    1
    17     6     8    1
    18    33    13    1
    19    36    14    1
    20    35    14    1
    21     8    13    1
    22     8    10    2
    23    13    31    1
    24    13    32    1
    25     1    17    1
    26     1    16    1
    27     1     2    1
    28    26    10    1
    29    14     9    1
    30    14    34    1
    31    10     4    1
    32     2     9    2
    33     2     4    1
    34     9    15    1
    35    38    15    1
    36     4    20    1
    37     4    21    1
    38    15    37    1
    39    15    39    1
@<TRIPOS>MOLECULE
5281519_run_2.pdb
 39 39 0 0 0
SMALL
GASTEIGER

@<TRIPOS>ATOM
      1    C      -60.8810  -81.7460  -13.9380 C.3     2  LIG2       -0.0275
      2    C      -61.9370  -80.6240  -14.0290 C.2     2  LIG2       -0.0668
      3    C      -61.3910  -83.1810  -13.6020 C.3     2  LIG2       -0.0283
      4    C      -62.2520  -80.1560  -15.4670 C.3     2  LIG2       -0.0130
      5    C      -62.1190  -83.8800  -14.7440 C.2     2  LIG2       -0.0762
      6    C      -64.3330  -83.0760  -17.0680 C.3     2  LIG2       -0.0286
      7    C      -64.3340  -84.2170  -16.0050 C.3     2  LIG2       -0.0308
      8    C      -64.0580  -81.6930  -16.4730 C.2     2  LIG2       -0.0759
      9    C      -62.5170  -80.0850  -12.9180 C.2     2  LIG2       -0.0762
     10    C      -62.7810  -81.2700  -16.3500 C.2     2  LIG2       -0.0810
     11    C      -63.4690  -83.9060  -14.7840 C.2     2  LIG2       -0.0847
     12    C      -61.2230  -84.4100  -15.8570 C.3     2  LIG2       -0.0438
     13    C      -65.2650  -81.0110  -15.8440 C.3     2  LIG2       -0.0438
     14    C      -62.2170  -80.5430  -11.4920 C.3     2  LIG2       -0.0438
     15    C      -63.5260  -78.9380  -12.9320 C.3     2  LIG2       -0.0438
     16    H      -60.2890  -81.7620  -14.8540 H       2  LIG2        0.0313
     17    H      -60.1560  -81.4530  -13.1790 H       2  LIG2        0.0313
     18    H      -60.5490  -83.8090  -13.3090 H       2  LIG2        0.0313
     19    H      -62.0390  -83.1460  -12.7260 H       2  LIG2        0.0313
     20    H      -62.9720  -79.3450  -15.5000 H       2  LIG2        0.0352
     21    H      -61.3480  -79.7430  -15.9150 H       2  LIG2        0.0352
     22    H      -63.5540  -83.2940  -17.8000 H       2  LIG2        0.0313
     23    H      -65.2640  -83.0680  -17.6380 H       2  LIG2        0.0313
     24    H      -65.3500  -84.3700  -15.6390 H       2  LIG2        0.0310
     25    H      -64.0400  -85.1670  -16.4530 H       2  LIG2        0.0310
     26    H      -62.0010  -81.8670  -16.8000 H       2  LIG2        0.0575
     27    H      -64.0130  -83.4750  -13.9560 H       2  LIG2        0.0572
     28    H      -60.5490  -83.6350  -16.2220 H       2  LIG2        0.0274
     29    H      -61.7870  -84.7810  -16.7120 H       2  LIG2        0.0274
     30    H      -60.6200  -85.2370  -15.4830 H       2  LIG2        0.0274
     31    H      -65.9400  -80.6580  -16.6250 H       2  LIG2        0.0274
     32    H      -64.9980  -80.1540  -15.2300 H       2  LIG2        0.0274
     33    H      -65.8110  -81.7080  -15.2080 H       2  LIG2        0.0274
     34    H      -61.8360  -79.7110  -10.9000 H       2  LIG2        0.0274
     35    H      -61.4790  -81.3400  -11.4210 H       2  LIG2        0.0274
     36    H      -63.1280  -80.9090  -11.0210 H       2  LIG2        0.0274
     37    H      -63.3840  -78.2870  -12.0680 H       2  LIG2        0.0274
     38    H      -64.5380  -79.3360  -12.8790 H       2  LIG2        0.0274
     39    H      -63.4580  -78.2910  -13.8030 H       2  LIG2        0.0274
@<TRIPOS>BOND
     1    22     6    1
     2    23     6    1
     3     6     8    1
     4     6     7    1
     5    26    10    1
     6    29    12    1
     7    31    13    1
     8     8    10    2
     9     8    13    1
    10    25     7    1
    11    10     4    1
    12    28    12    1
    13     7    24    1
    14     7    11    1
    15    21     4    1
    16    12    30    1
    17    12     5    1
    18    13    32    1
    19    13    33    1
    20    20     4    1
    21     4     2    1
    22    16     1    1
    23    11     5    2
    24    11    27    1
    25     5     3    1
    26     2     1    1
    27     2     9    2
    28     1     3    1
    29     1    17    1
    30    39    15    1
    31     3    18    1
    32     3    19    1
    33    15     9    1
    34    15    38    1
    35    15    37    1
    36     9    14    1
    37    14    35    1
    38    14    36    1
    39    14    34    1
@<TRIPOS>MOLECULE
5281519_run_21.pdb
 39 39 0 0 0
SMALL
GASTEIGER

@<TRIPOS>ATOM
      1    C      -64.0910  -81.7960  -16.8010 C.3     2  LIG2       -0.0275
      2    C      -63.1220  -82.9960  -16.7330 C.2     2  LIG2       -0.0668
      3    C      -64.9150  -81.4710  -15.5170 C.3     2  LIG2       -0.0283
      4    C      -61.6290  -82.6090  -16.6480 C.3     2  LIG2       -0.0130
      5    C      -64.1100  -80.8320  -14.3910 C.2     2  LIG2       -0.0762
      6    C      -61.1300  -81.2230  -13.0070 C.3     2  LIG2       -0.0286
      7    C      -62.5560  -81.1920  -12.3760 C.3     2  LIG2       -0.0308
      8    C      -61.0080  -82.1970  -14.1810 C.2     2  LIG2       -0.0759
      9    C      -63.5640  -84.2860  -16.7710 C.2     2  LIG2       -0.0762
     10    C      -61.3040  -81.7680  -15.4290 C.2     2  LIG2       -0.0810
     11    C      -63.6610  -81.5770  -13.3580 C.2     2  LIG2       -0.0847
     12    C      -63.7630  -79.3620  -14.5960 C.3     2  LIG2       -0.0438
     13    C      -60.7900  -83.6530  -13.7920 C.3     2  LIG2       -0.0438
     14    C      -65.0380  -84.6810  -16.8500 C.3     2  LIG2       -0.0438
     15    C      -62.6600  -85.5170  -16.7630 C.3     2  LIG2       -0.0438
     16    H      -63.5500  -80.9110  -17.1350 H       2  LIG2        0.0313
     17    H      -64.7890  -81.9840  -17.6170 H       2  LIG2        0.0313
     18    H      -65.7330  -80.7950  -15.7680 H       2  LIG2        0.0313
     19    H      -65.3970  -82.3770  -15.1480 H       2  LIG2        0.0313
     20    H      -60.9690  -83.4690  -16.6350 H       2  LIG2        0.0352
     21    H      -61.3500  -82.0580  -17.5470 H       2  LIG2        0.0352
     22    H      -60.8980  -80.2200  -13.3700 H       2  LIG2        0.0313
     23    H      -60.3700  -81.4360  -12.2550 H       2  LIG2        0.0313
     24    H      -62.6020  -81.9080  -11.5540 H       2  LIG2        0.0310
     25    H      -62.7620  -80.2200  -11.9260 H       2  LIG2        0.0310
     26    H      -61.4870  -80.7130  -15.5740 H       2  LIG2        0.0575
     27    H      -63.9400  -82.6210  -13.3220 H       2  LIG2        0.0572
     28    H      -63.2970  -79.1990  -15.5680 H       2  LIG2        0.0274
     29    H      -63.0790  -78.9800  -13.8390 H       2  LIG2        0.0274
     30    H      -64.6700  -78.7580  -14.5480 H       2  LIG2        0.0274
     31    H      -59.7700  -83.7900  -13.4320 H       2  LIG2        0.0274
     32    H      -60.9430  -84.3420  -14.6180 H       2  LIG2        0.0274
     33    H      -61.4760  -83.9420  -12.9950 H       2  LIG2        0.0274
     34    H      -65.2220  -85.2780  -17.7430 H       2  LIG2        0.0274
     35    H      -65.7270  -83.8400  -16.8890 H       2  LIG2        0.0274
     36    H      -65.3090  -85.2760  -15.9780 H       2  LIG2        0.0274
     37    H      -63.0770  -86.3080  -17.3880 H       2  LIG2        0.0274
     38    H      -62.5780  -85.9090  -15.7500 H       2  LIG2        0.0274
     39    H      -61.6560  -85.3390  -17.1430 H       2  LIG2        0.0274
@<TRIPOS>BOND
     1    34    14    1
     2    17     1    1
     3    21     4    1
     4    37    15    1
     5    39    15    1
     6    16     1    1
     7    35    14    1
     8    14     9    1
     9    14    36    1
    10     1     2    1
    11     1     3    1
    12     9    15    1
    13     9     2    2
    14    15    38    1
    15     2     4    1
    16     4    20    1
    17     4    10    1
    18    18     3    1
    19    26    10    1
    20    28    12    1
    21     3    19    1
    22     3     5    1
    23    10     8    2
    24    32    13    1
    25    12    30    1
    26    12     5    1
    27    12    29    1
    28     5    11    2
    29     8    13    1
    30     8     6    1
    31    13    31    1
    32    13    33    1
    33    22     6    1
    34    11    27    1
    35    11     7    1
    36     6     7    1
    37     6    23    1
    38     7    25    1
    39     7    24    1
@<TRIPOS>MOLECULE
5281519_run_14.pdb
 39 39 0 0 0
SMALL
GASTEIGER

@<TRIPOS>ATOM
      1    C      -63.4720  -77.7370  -13.4520 C.3     2  LIG2       -0.0275
      2    C      -62.1090  -77.7160  -12.7270 C.2     2  LIG2       -0.0668
      3    C      -63.4870  -78.2360  -14.9290 C.3     2  LIG2       -0.0283
      4    C      -61.9250  -78.8350  -11.6780 C.3     2  LIG2       -0.0130
      5    C      -63.3130  -79.7420  -15.0920 C.2     2  LIG2       -0.0762
      6    C      -61.4540  -82.1320  -13.7580 C.3     2  LIG2       -0.0286
      7    C      -61.6790  -81.7200  -15.2450 C.3     2  LIG2       -0.0308
      8    C      -61.0650  -80.9580  -12.8560 C.2     2  LIG2       -0.0759
      9    C      -61.1650  -76.7660  -12.9870 C.2     2  LIG2       -0.0762
     10    C      -62.0390  -80.2260  -12.2690 C.2     2  LIG2       -0.0810
     11    C      -62.1080  -80.2630  -15.4110 C.2     2  LIG2       -0.0847
     12    C      -64.5400  -80.5780  -14.7490 C.3     2  LIG2       -0.0438
     13    C      -59.5930  -80.5730  -12.8990 C.3     2  LIG2       -0.0438
     14    C      -61.3340  -75.6590  -14.0260 C.3     2  LIG2       -0.0438
     15    C      -59.8210  -76.6540  -12.2700 C.3     2  LIG2       -0.0438
     16    H      -64.1910  -78.3000  -12.8560 H       2  LIG2        0.0313
     17    H      -63.8710  -76.7220  -13.4290 H       2  LIG2        0.0313
     18    H      -64.4300  -77.9560  -15.4010 H       2  LIG2        0.0313
     19    H      -62.7180  -77.7180  -15.5020 H       2  LIG2        0.0313
     20    H      -60.9740  -78.7770  -11.1600 H       2  LIG2        0.0352
     21    H      -62.6740  -78.7170  -10.8940 H       2  LIG2        0.0352
     22    H      -62.3840  -82.5600  -13.3800 H       2  LIG2        0.0313
     23    H      -60.7190  -82.9340  -13.6780 H       2  LIG2        0.0313
     24    H      -60.7460  -81.8380  -15.7980 H       2  LIG2        0.0310
     25    H      -62.3910  -82.3890  -15.7310 H       2  LIG2        0.0310
     26    H      -63.0570  -80.5770  -12.3480 H       2  LIG2        0.0575
     27    H      -61.2920  -79.5820  -15.6080 H       2  LIG2        0.0572
     28    H      -64.9280  -80.3210  -13.7630 H       2  LIG2        0.0274
     29    H      -64.3350  -81.6480  -14.7500 H       2  LIG2        0.0274
     30    H      -65.3260  -80.3970  -15.4820 H       2  LIG2        0.0274
     31    H      -59.0000  -81.3170  -12.3660 H       2  LIG2        0.0274
     32    H      -59.3930  -79.6060  -12.4430 H       2  LIG2        0.0274
     33    H      -59.2390  -80.5260  -13.9290 H       2  LIG2        0.0274
     34    H      -61.2500  -74.6810  -13.5530 H       2  LIG2        0.0274
     35    H      -62.2890  -75.6720  -14.5470 H       2  LIG2        0.0274
     36    H      -60.5560  -75.7400  -14.7840 H       2  LIG2        0.0274
     37    H      -59.5370  -75.6090  -12.1420 H       2  LIG2        0.0274
     38    H      -59.0450  -77.1350  -12.8650 H       2  LIG2        0.0274
     39    H      -59.8060  -77.0890  -11.2730 H       2  LIG2        0.0274
@<TRIPOS>BOND
     1    24     7    1
     2    25     7    1
     3    27    11    1
     4    19     3    1
     5    30    12    1
     6    11     7    1
     7    11     5    2
     8    18     3    1
     9     7     6    1
    10     5     3    1
    11     5    12    1
    12     3     1    1
    13    36    14    1
    14    29    12    1
    15    12    28    1
    16    35    14    1
    17    14    34    1
    18    14     9    1
    19    33    13    1
    20     6    23    1
    21     6    22    1
    22     6     8    1
    23     1    17    1
    24     1    16    1
    25     1     2    1
    26     9     2    2
    27     9    15    1
    28    13     8    1
    29    13    32    1
    30    13    31    1
    31    38    15    1
    32     8    10    2
    33     2     4    1
    34    26    10    1
    35    15    37    1
    36    15    39    1
    37    10     4    1
    38     4    20    1
    39     4    21    1
@<TRIPOS>MOLECULE
5281519_run_22.pdb
 39 39 0 0 0
SMALL
GASTEIGER

@<TRIPOS>ATOM
      1    C      -64.1430  -82.8630  -14.0350 C.3     2  LIG2       -0.0275
      2    C      -62.8510  -82.1990  -14.5590 C.2     2  LIG2       -0.0668
      3    C      -65.3570  -82.9320  -15.0120 C.3     2  LIG2       -0.0283
      4    C      -61.7110  -83.1890  -14.8870 C.3     2  LIG2       -0.0130
      5    C      -65.2140  -83.9590  -16.1300 C.2     2  LIG2       -0.0762
      6    C      -62.8380  -85.0040  -18.1820 C.3     2  LIG2       -0.0286
      7    C      -64.2820  -84.4900  -18.4660 C.3     2  LIG2       -0.0308
      8    C      -62.0240  -84.0640  -17.2900 C.2     2  LIG2       -0.0759
      9    C      -62.7350  -80.8470  -14.6930 C.2     2  LIG2       -0.0762
     10    C      -62.0930  -84.2030  -15.9470 C.2     2  LIG2       -0.0810
     11    C      -64.8270  -83.5790  -17.3670 C.2     2  LIG2       -0.0847
     12    C      -65.4120  -85.4100  -15.7070 C.3     2  LIG2       -0.0438
     13    C      -61.3860  -82.8830  -18.0090 C.3     2  LIG2       -0.0438
     14    C      -63.8580  -79.8600  -14.3760 C.3     2  LIG2       -0.0438
     15    C      -61.4720  -80.1220  -15.1510 C.3     2  LIG2       -0.0438
     16    H      -63.9100  -83.8570  -13.6520 H       2  LIG2        0.0313
     17    H      -64.4520  -82.3190  -13.1420 H       2  LIG2        0.0313
     18    H      -66.2630  -83.1710  -14.4540 H       2  LIG2        0.0313
     19    H      -65.5390  -81.9480  -15.4450 H       2  LIG2        0.0313
     20    H      -60.8050  -82.6950  -15.2210 H       2  LIG2        0.0352
     21    H      -61.4200  -83.7150  -13.9770 H       2  LIG2        0.0352
     22    H      -62.9130  -85.9700  -17.6800 H       2  LIG2        0.0313
     23    H      -62.3020  -85.2080  -19.1100 H       2  LIG2        0.0313
     24    H      -64.2830  -83.9060  -19.3870 H       2  LIG2        0.0310
     25    H      -64.9630  -85.3220  -18.6490 H       2  LIG2        0.0310
     26    H      -62.6170  -85.0610  -15.5510 H       2  LIG2        0.0575
     27    H      -64.6840  -82.5250  -17.5560 H       2  LIG2        0.0572
     28    H      -64.7890  -85.6590  -14.8480 H       2  LIG2        0.0274
     29    H      -65.1730  -86.1170  -16.5000 H       2  LIG2        0.0274
     30    H      -66.4540  -85.5740  -15.4300 H       2  LIG2        0.0274
     31    H      -60.5390  -83.2260  -18.6040 H       2  LIG2        0.0274
     32    H      -61.0220  -82.1160  -17.3300 H       2  LIG2        0.0274
     33    H      -62.1050  -82.4100  -18.6790 H       2  LIG2        0.0274
     34    H      -63.5370  -79.1560  -13.6070 H       2  LIG2        0.0274
     35    H      -64.7740  -80.3210  -14.0150 H       2  LIG2        0.0274
     36    H      -64.1160  -79.2940  -15.2710 H       2  LIG2        0.0274
     37    H      -61.3580  -79.1720  -14.6270 H       2  LIG2        0.0274
     38    H      -61.5380  -79.9030  -16.2170 H       2  LIG2        0.0274
     39    H      -60.5490  -80.6700  -14.9720 H       2  LIG2        0.0274
@<TRIPOS>BOND
     1    24     7    1
     2    23     6    1
     3    33    13    1
     4    25     7    1
     5    31    13    1
     6     7     6    1
     7     7    11    1
     8     6    22    1
     9     6     8    1
    10    13    32    1
    11    13     8    1
    12    27    11    1
    13    11     5    2
    14     8    10    2
    15    29    12    1
    16    38    15    1
    17     5    12    1
    18     5     3    1
    19    10    26    1
    20    10     4    1
    21    12    30    1
    22    12    28    1
    23    19     3    1
    24    36    14    1
    25    20     4    1
    26    15    39    1
    27    15     9    1
    28    15    37    1
    29     3    18    1
    30     3     1    1
    31     4     2    1
    32     4    21    1
    33     9     2    2
    34     9    14    1
    35     2     1    1
    36    14    35    1
    37    14    34    1
    38     1    16    1
    39     1    17    1
@<TRIPOS>MOLECULE
5281519_run_7.pdb
 39 39 0 0 0
SMALL
GASTEIGER

@<TRIPOS>ATOM
      1    C      -64.0430  -80.0490  -14.9850 C.3     2  LIG2       -0.0275
      2    C      -62.8890  -81.0740  -15.0210 C.2     2  LIG2       -0.0668
      3    C      -64.4960  -79.5330  -13.5850 C.3     2  LIG2       -0.0283
      4    C      -61.5390  -80.5010  -15.5060 C.3     2  LIG2       -0.0130
      5    C      -63.5290  -78.5540  -12.9270 C.2     2  LIG2       -0.0762
      6    C      -60.2560  -78.2480  -12.5570 C.3     2  LIG2       -0.0286
      7    C      -61.4090  -78.2410  -11.5080 C.3     2  LIG2       -0.0308
      8    C      -60.3050  -79.4490  -13.5040 C.2     2  LIG2       -0.0759
      9    C      -63.0700  -82.3810  -14.6710 C.2     2  LIG2       -0.0762
     10    C      -61.0330  -79.3640  -14.6410 C.2     2  LIG2       -0.0810
     11    C      -62.6620  -78.9760  -11.9810 C.2     2  LIG2       -0.0847
     12    C      -63.5420  -77.1430  -13.5020 C.3     2  LIG2       -0.0438
     13    C      -59.7110  -80.7350  -12.9460 C.3     2  LIG2       -0.0438
     14    C      -64.3990  -82.9560  -14.1850 C.3     2  LIG2       -0.0438
     15    C      -61.9890  -83.4570  -14.7350 C.3     2  LIG2       -0.0438
     16    H      -63.8020  -79.2090  -15.6370 H       2  LIG2        0.0313
     17    H      -64.9030  -80.5060  -15.4760 H       2  LIG2        0.0313
     18    H      -65.4640  -79.0380  -13.6730 H       2  LIG2        0.0313
     19    H      -64.6670  -80.3770  -12.9170 H       2  LIG2        0.0313
     20    H      -60.7550  -81.2490  -15.5530 H       2  LIG2        0.0352
     21    H      -61.6480  -80.1490  -16.5320 H       2  LIG2        0.0352
     22    H      -60.3340  -77.3380  -13.1550 H       2  LIG2        0.0313
     23    H      -59.2810  -78.1850  -12.0720 H       2  LIG2        0.0313
     24    H      -61.0740  -78.7430  -10.5990 H       2  LIG2        0.0310
     25    H      -61.6530  -77.2220  -11.2030 H       2  LIG2        0.0310
     26    H      -61.4460  -78.4030  -14.9090 H       2  LIG2        0.0575
     27    H      -62.7160  -80.0070  -11.6620 H       2  LIG2        0.0572
     28    H      -63.4250  -77.1590  -14.5860 H       2  LIG2        0.0274
     29    H      -62.7500  -76.5150  -13.0980 H       2  LIG2        0.0274
     30    H      -64.4910  -76.6580  -13.2700 H       2  LIG2        0.0274
     31    H      -58.6230  -80.6610  -12.9250 H       2  LIG2        0.0274
     32    H      -59.9690  -81.6130  -13.5330 H       2  LIG2        0.0274
     33    H      -60.0630  -80.9090  -11.9290 H       2  LIG2        0.0274
     34    H      -64.7230  -83.7650  -14.8400 H       2  LIG2        0.0274
     35    H      -65.2150  -82.2380  -14.1490 H       2  LIG2        0.0274
     36    H      -64.2830  -83.3580  -13.1790 H       2  LIG2        0.0274
     37    H      -62.4160  -84.4170  -15.0300 H       2  LIG2        0.0274
     38    H      -61.5380  -83.5870  -13.7520 H       2  LIG2        0.0274
     39    H      -61.1950  -83.2550  -15.4510 H       2  LIG2        0.0274
@<TRIPOS>BOND
     1    21     4    1
     2    16     1    1
     3    20     4    1
     4     4     2    1
     5     4    10    1
     6    17     1    1
     7    39    15    1
     8    37    15    1
     9     2     1    1
    10     2     9    2
    11     1     3    1
    12    26    10    1
    13    34    14    1
    14    15     9    1
    15    15    38    1
    16     9    14    1
    17    10     8    2
    18    28    12    1
    19    14    35    1
    20    14    36    1
    21    18     3    1
    22     3     5    1
    23     3    19    1
    24    32    13    1
    25     8    13    1
    26     8     6    1
    27    12    30    1
    28    12    29    1
    29    12     5    1
    30    22     6    1
    31    13    31    1
    32    13    33    1
    33     5    11    2
    34     6    23    1
    35     6     7    1
    36    11    27    1
    37    11     7    1
    38     7    25    1
    39     7    24    1
@<TRIPOS>MOLECULE
5281519_run_19.pdb
 39 39 0 0 0
SMALL
GASTEIGER

@<TRIPOS>ATOM
      1    C      -62.9150  -81.0770  -16.5210 C.3     2  LIG2       -0.0275
      2    C      -63.3490  -81.5270  -15.1080 C.2     2  LIG2       -0.0668
      3    C      -61.8880  -81.9780  -17.2730 C.3     2  LIG2       -0.0283
      4    C      -64.7770  -82.1130  -15.0340 C.3     2  LIG2       -0.0130
      5    C      -62.4620  -83.2880  -17.8030 C.2     2  LIG2       -0.0762
      6    C      -64.5350  -85.6390  -16.7440 C.3     2  LIG2       -0.0286
      7    C      -63.0810  -85.7320  -17.3020 C.3     2  LIG2       -0.0308
      8    C      -64.6860  -84.6220  -15.6110 C.2     2  LIG2       -0.0759
      9    C      -62.5340  -81.3890  -14.0230 C.2     2  LIG2       -0.0762
     10    C      -64.9630  -83.3340  -15.9130 C.2     2  LIG2       -0.0810
     11    C      -62.2820  -84.4420  -17.1240 C.2     2  LIG2       -0.0847
     12    C      -63.3300  -83.1590  -19.0490 C.3     2  LIG2       -0.0438
     13    C      -64.2650  -85.1210  -14.2360 C.3     2  LIG2       -0.0438
     14    C      -61.1190  -80.8160  -14.0870 C.3     2  LIG2       -0.0438
     15    C      -62.9190  -81.7610  -12.5930 C.3     2  LIG2       -0.0438
     16    H      -63.8000  -80.9180  -17.1380 H       2  LIG2        0.0313
     17    H      -62.4920  -80.0770  -16.4300 H       2  LIG2        0.0313
     18    H      -61.4700  -81.4300  -18.1180 H       2  LIG2        0.0313
     19    H      -61.0390  -82.1910  -16.6230 H       2  LIG2        0.0313
     20    H      -65.0680  -82.3890  -14.0260 H       2  LIG2        0.0352
     21    H      -65.4940  -81.3460  -15.3290 H       2  LIG2        0.0352
     22    H      -65.1940  -85.3410  -17.5610 H       2  LIG2        0.0313
     23    H      -64.8990  -86.6180  -16.4290 H       2  LIG2        0.0313
     24    H      -62.5390  -86.5130  -16.7680 H       2  LIG2        0.0310
     25    H      -63.0840  -86.0420  -18.3470 H       2  LIG2        0.0310
     26    H      -65.2020  -83.0920  -16.9380 H       2  LIG2        0.0575
     27    H      -61.6710  -84.4200  -16.2320 H       2  LIG2        0.0572
     28    H      -64.1050  -82.4040  -18.9120 H       2  LIG2        0.0274
     29    H      -63.8250  -84.0910  -19.3170 H       2  LIG2        0.0274
     30    H      -62.7140  -82.8630  -19.8990 H       2  LIG2        0.0274
     31    H      -65.0100  -85.8190  -13.8520 H       2  LIG2        0.0274
     32    H      -64.1590  -84.3220  -13.5060 H       2  LIG2        0.0274
     33    H      -63.3080  -85.6390  -14.2930 H       2  LIG2        0.0274
     34    H      -61.0370  -79.9400  -13.4440 H       2  LIG2        0.0274
     35    H      -60.8040  -80.5050  -15.0800 H       2  LIG2        0.0274
     36    H      -60.4030  -81.5610  -13.7420 H       2  LIG2        0.0274
     37    H      -62.4800  -81.0620  -11.8790 H       2  LIG2        0.0274
     38    H      -62.5390  -82.7540  -12.3550 H       2  LIG2        0.0274
     39    H      -63.9890  -81.7490  -12.3980 H       2  LIG2        0.0274
@<TRIPOS>BOND
     1    30    12    1
     2    29    12    1
     3    12    28    1
     4    12     5    1
     5    25     7    1
     6    18     3    1
     7     5     3    1
     8     5    11    2
     9    22     6    1
    10     7    11    1
    11     7    24    1
    12     7     6    1
    13     3    19    1
    14     3     1    1
    15    16     1    1
    16    11    27    1
    17    26    10    1
    18     6    23    1
    19     6     8    1
    20     1    17    1
    21     1     2    1
    22    10     8    2
    23    10     4    1
    24     8    13    1
    25    21     4    1
    26     2     4    1
    27     2     9    2
    28    35    14    1
    29     4    20    1
    30    33    13    1
    31    13    31    1
    32    13    32    1
    33    14     9    1
    34    14    36    1
    35    14    34    1
    36     9    15    1
    37    15    39    1
    38    15    38    1
    39    15    37    1
@<TRIPOS>MOLECULE
5281519_run_9.pdb
 39 39 0 0 0
SMALL
GASTEIGER

@<TRIPOS>ATOM
      1    C      -61.6560  -81.7560  -12.9200 C.3     2  LIG2       -0.0275
      2    C      -62.9120  -81.2840  -13.6840 C.2     2  LIG2       -0.0668
      3    C      -60.2880  -81.1390  -13.3450 C.3     2  LIG2       -0.0283
      4    C      -63.8240  -80.3260  -12.8860 C.3     2  LIG2       -0.0130
      5    C      -60.0820  -79.6930  -12.9070 C.2     2  LIG2       -0.0762
      6    C      -61.8780  -76.9180  -12.7580 C.3     2  LIG2       -0.0286
      7    C      -60.4920  -77.2060  -13.4130 C.3     2  LIG2       -0.0308
      8    C      -62.9630  -77.9150  -13.1710 C.2     2  LIG2       -0.0759
      9    C      -63.1900  -81.7080  -14.9510 C.2     2  LIG2       -0.0762
     10    C      -63.1180  -79.0540  -12.4600 C.2     2  LIG2       -0.0810
     11    C      -60.2880  -78.6770  -13.7730 C.2     2  LIG2       -0.0847
     12    C      -59.7620  -79.5010  -11.4290 C.3     2  LIG2       -0.0438
     13    C      -63.6190  -77.6340  -14.5160 C.3     2  LIG2       -0.0438
     14    C      -62.2920  -82.6500  -15.7510 C.3     2  LIG2       -0.0438
     15    C      -64.4390  -81.3250  -15.7420 C.3     2  LIG2       -0.0438
     16    H      -61.8120  -81.6250  -11.8490 H       2  LIG2        0.0313
     17    H      -61.5920  -82.8390  -13.0310 H       2  LIG2        0.0313
     18    H      -59.4730  -81.7320  -12.9290 H       2  LIG2        0.0313
     19    H      -60.1700  -81.2110  -14.4260 H       2  LIG2        0.0313
     20    H      -64.7150  -80.0380  -13.4330 H       2  LIG2        0.0352
     21    H      -64.1980  -80.8430  -12.0010 H       2  LIG2        0.0352
     22    H      -61.7600  -76.9720  -11.6740 H       2  LIG2        0.0313
     23    H      -62.2040  -75.8960  -12.9570 H       2  LIG2        0.0313
     24    H      -60.4070  -76.6400  -14.3410 H       2  LIG2        0.0310
     25    H      -59.6800  -76.8490  -12.7790 H       2  LIG2        0.0310
     26    H      -62.5600  -79.1600  -11.5410 H       2  LIG2        0.0575
     27    H      -60.5410  -78.9200  -14.7950 H       2  LIG2        0.0572
     28    H      -60.4890  -80.0140  -10.7990 H       2  LIG2        0.0274
     29    H      -59.7530  -78.4540  -11.1320 H       2  LIG2        0.0274
     30    H      -58.7740  -79.9090  -11.2100 H       2  LIG2        0.0274
     31    H      -64.2890  -76.7780  -14.4290 H       2  LIG2        0.0274
     32    H      -64.2040  -78.4720  -14.8880 H       2  LIG2        0.0274
     33    H      -62.8650  -77.4040  -15.2690 H       2  LIG2        0.0274
     34    H      -62.8410  -83.5500  -16.0290 H       2  LIG2        0.0274
     35    H      -61.4010  -82.9800  -15.2220 H       2  LIG2        0.0274
     36    H      -61.9580  -82.1580  -16.6630 H       2  LIG2        0.0274
     37    H      -64.7770  -82.1590  -16.3590 H       2  LIG2        0.0274
     38    H      -64.2120  -80.4940  -16.4100 H       2  LIG2        0.0274
     39    H      -65.2920  -81.0470  -15.1280 H       2  LIG2        0.0274
@<TRIPOS>BOND
     1    36    14    1
     2    38    15    1
     3    37    15    1
     4    34    14    1
     5    14    35    1
     6    14     9    1
     7    15    39    1
     8    15     9    1
     9    33    13    1
    10     9     2    2
    11    32    13    1
    12    27    11    1
    13    13    31    1
    14    13     8    1
    15    19     3    1
    16    24     7    1
    17    11     7    1
    18    11     5    2
    19     2     1    1
    20     2     4    1
    21    20     4    1
    22     7    25    1
    23     7     6    1
    24     3    18    1
    25     3     1    1
    26     3     5    1
    27     8     6    1
    28     8    10    2
    29    17     1    1
    30    23     6    1
    31     1    16    1
    32     5    12    1
    33     4    10    1
    34     4    21    1
    35     6    22    1
    36    10    26    1
    37    12    30    1
    38    12    29    1
    39    12    28    1
@<TRIPOS>MOLECULE
5281519_run_9.pdb
 39 39 0 0 0
SMALL
GASTEIGER

@<TRIPOS>ATOM
      1    C      -62.1020  -84.3740  -14.4090 C.3     2  LIG2       -0.0275
      2    C      -63.4500  -84.3150  -15.1600 C.2     2  LIG2       -0.0668
      3    C      -61.0050  -83.3480  -14.8290 C.3     2  LIG2       -0.0283
      4    C      -64.6120  -83.7080  -14.3420 C.3     2  LIG2       -0.0130
      5    C      -61.2650  -81.9180  -14.3690 C.2     2  LIG2       -0.0762
      6    C      -63.8480  -79.8610  -14.1670 C.3     2  LIG2       -0.0286
      7    C      -62.4490  -79.6840  -14.8330 C.3     2  LIG2       -0.0308
      8    C      -64.5640  -81.1450  -14.5920 C.2     2  LIG2       -0.0759
      9    C      -63.5910  -84.7870  -16.4320 C.2     2  LIG2       -0.0762
     10    C      -64.3430  -82.2840  -13.8980 C.2     2  LIG2       -0.0810
     11    C      -61.7910  -81.0080  -15.2180 C.2     2  LIG2       -0.0847
     12    C      -61.0090  -81.6550  -12.8900 C.3     2  LIG2       -0.0438
     13    C      -65.2880  -81.0680  -15.9290 C.3     2  LIG2       -0.0438
     14    C      -62.4480  -85.3850  -17.2510 C.3     2  LIG2       -0.0438
     15    C      -64.9040  -84.8100  -17.2120 C.3     2  LIG2       -0.0438
     16    H      -62.2820  -84.3150  -13.3350 H       2  LIG2        0.0313
     17    H      -61.6990  -85.3790  -14.5380 H       2  LIG2        0.0313
     18    H      -60.0400  -83.6580  -14.4270 H       2  LIG2        0.0313
     19    H      -60.8810  -83.3640  -15.9120 H       2  LIG2        0.0313
     20    H      -65.5530  -83.7100  -14.8800 H       2  LIG2        0.0352
     21    H      -64.7940  -84.3290  -13.4640 H       2  LIG2        0.0352
     22    H      -63.7090  -79.8890  -13.0850 H       2  LIG2        0.0313
     23    H      -64.4840  -78.9920  -14.3480 H       2  LIG2        0.0313
     24    H      -62.5570  -79.1070  -15.7520 H       2  LIG2        0.0310
     25    H      -61.7870  -79.0960  -14.1960 H       2  LIG2        0.0310
     26    H      -63.7710  -82.2200  -12.9840 H       2  LIG2        0.0575
     27    H      -61.9630  -81.3050  -16.2430 H       2  LIG2        0.0572
     28    H      -61.5290  -82.3810  -12.2650 H       2  LIG2        0.0274
     29    H      -61.3300  -80.6640  -12.5750 H       2  LIG2        0.0274
     30    H      -59.9410  -81.7310  -12.6820 H       2  LIG2        0.0274
     31    H      -66.1940  -80.4700  -15.8250 H       2  LIG2        0.0274
     32    H      -65.5800  -82.0430  -16.3120 H       2  LIG2        0.0274
     33    H      -64.6530  -80.5990  -16.6810 H       2  LIG2        0.0274
     34    H      -62.6850  -86.4080  -17.5410 H       2  LIG2        0.0274
     35    H      -61.4930  -85.4210  -16.7320 H       2  LIG2        0.0274
     36    H      -62.2960  -84.7990  -18.1570 H       2  LIG2        0.0274
     37    H      -64.9650  -85.7000  -17.8400 H       2  LIG2        0.0274
     38    H      -64.9590  -83.9410  -17.8670 H       2  LIG2        0.0274
     39    H      -65.7950  -84.8270  -16.5890 H       2  LIG2        0.0274
@<TRIPOS>BOND
     1    36    14    1
     2    38    15    1
     3    37    15    1
     4    34    14    1
     5    14    35    1
     6    14     9    1
     7    15    39    1
     8    15     9    1
     9    33    13    1
    10     9     2    2
    11    32    13    1
    12    27    11    1
    13    13    31    1
    14    13     8    1
    15    19     3    1
    16    24     7    1
    17    11     7    1
    18    11     5    2
    19     2     1    1
    20     2     4    1
    21    20     4    1
    22     7    25    1
    23     7     6    1
    24     3    18    1
    25     3     1    1
    26     3     5    1
    27     8     6    1
    28     8    10    2
    29    17     1    1
    30     1    16    1
    31     5    12    1
    32    23     6    1
    33     4    10    1
    34     4    21    1
    35     6    22    1
    36    10    26    1
    37    12    30    1
    38    12    29    1
    39    12    28    1
