@<TRIPOS>MOLECULE
11996452_4_run_3.pdb
 42 44 0 0 0
SMALL
GASTEIGER

@<TRIPOS>ATOM
      1    O      -71.1750  -89.4090  -12.7510 O.3     2  LIG2       -0.3886
      2    C      -69.5360  -89.6260   -9.0300 C.3     2  LIG2       -0.0289
      3    C      -68.0230  -89.6780   -9.1290 C.3     2  LIG2       -0.0284
      4    C      -68.8420  -90.8070   -9.7190 C.3     2  LIG2       -0.0319
      5    C      -70.4210  -88.6980   -9.9020 C.3     2  LIG2       -0.0294
      6    C      -71.7060  -89.4380  -10.3680 C.3     2  LIG2       -0.0090
      7    C      -69.0510  -91.0280  -11.2350 C.3     2  LIG2       -0.0468
      8    C      -70.8750  -87.3600   -9.2470 C.3     2  LIG2       -0.0404
      9    C      -71.5630  -90.2690  -11.6900 C.3     2  LIG2        0.0664
     10    C      -72.7890  -88.3430  -10.3830 C.3     2  LIG2       -0.0471
     11    C      -70.5010  -91.4090  -11.6130 C.3     2  LIG2       -0.0237
     12    C      -67.2420  -88.6930  -10.0290 C.3     2  LIG2       -0.0593
     13    C      -67.2630  -89.9750   -7.8230 C.3     2  LIG2       -0.0593
     14    C      -72.4100  -87.3970   -9.2490 C.3     2  LIG2       -0.0498
     15    C      -70.2890  -87.0430   -7.8560 C.3     2  LIG2       -0.0621
     16    C      -72.9130  -90.8900  -12.1200 C.3     2  LIG2       -0.0358
     17    H      -69.9990  -89.8440   -8.0660 H       2  LIG2        0.0312
     18    H      -68.7800  -91.7600   -9.1910 H       2  LIG2        0.0309
     19    H      -69.8710  -88.4050  -10.7930 H       2  LIG2        0.0310
     20    H      -72.0030  -90.1390   -9.5850 H       2  LIG2        0.0331
     21    H      -68.7280  -90.1790  -11.8340 H       2  LIG2        0.0269
     22    H      -68.4000  -91.8500  -11.5360 H       2  LIG2        0.0269
     23    H      -70.5730  -86.5430   -9.9060 H       2  LIG2        0.0301
     24    H      -72.7960  -87.8090  -11.3340 H       2  LIG2        0.0269
     25    H      -73.7890  -88.7550  -10.2310 H       2  LIG2        0.0269
     26    H      -70.4750  -91.9330  -12.5700 H       2  LIG2        0.0293
     27    H      -70.8450  -92.1590  -10.8980 H       2  LIG2        0.0293
     28    H      -66.2640  -89.1010  -10.2860 H       2  LIG2        0.0235
     29    H      -67.0780  -87.7480   -9.5110 H       2  LIG2        0.0235
     30    H      -67.7330  -88.4510  -10.9680 H       2  LIG2        0.0235
     31    H      -66.2930  -90.4280   -8.0270 H       2  LIG2        0.0235
     32    H      -67.8120  -90.6610   -7.1760 H       2  LIG2        0.0235
     33    H      -67.0940  -89.0610   -7.2540 H       2  LIG2        0.0235
     34    H      -72.7910  -87.7770   -8.2980 H       2  LIG2        0.0268
     35    H      -72.8420  -86.4060   -9.3980 H       2  LIG2        0.0268
     36    H      -70.5900  -87.7780   -7.1090 H       2  LIG2        0.0233
     37    H      -70.6250  -86.0670   -7.5050 H       2  LIG2        0.0233
     38    H      -69.1980  -87.0200   -7.8840 H       2  LIG2        0.0233
     39    H      -73.3010  -91.5590  -11.3510 H       2  LIG2        0.0257
     40    H      -72.8180  -91.4710  -13.0390 H       2  LIG2        0.0257
     41    H      -73.6730  -90.1310  -12.3050 H       2  LIG2        0.0257
     42    H      -71.1880  -88.5050  -12.4290 H       2  LIG2        0.2102
@<TRIPOS>BOND
     1    40    16    1
     2     1    42    1
     3     1     9    1
     4    26    11    1
     5    41    16    1
     6    16     9    1
     7    16    39    1
     8    21     7    1
     9     9    11    1
    10     9     6    1
    11    11     7    1
    12    11    27    1
    13    22     7    1
    14    24    10    1
    15     7     4    1
    16    30    12    1
    17    19     5    1
    18    10     6    1
    19    10    25    1
    20    10    14    1
    21     6     5    1
    22     6    20    1
    23    28    12    1
    24    12    29    1
    25    12     3    1
    26    23     8    1
    27     5     8    1
    28     5     2    1
    29     4    18    1
    30     4     3    1
    31     4     2    1
    32    35    14    1
    33    14     8    1
    34    14    34    1
    35     8    15    1
    36     3     2    1
    37     3    13    1
    38     2    17    1
    39    31    13    1
    40    38    15    1
    41    15    37    1
    42    15    36    1
    43    13    33    1
    44    13    32    1
@<TRIPOS>MOLECULE
11996452_4_run_24.pdb
 42 44 0 0 0
SMALL
GASTEIGER

@<TRIPOS>ATOM
      1    O      -69.9200  -89.0820  -12.9970 O.3     2  LIG2       -0.3886
      2    C      -69.8530  -89.3080   -8.9330 C.3     2  LIG2       -0.0289
      3    C      -69.3760  -87.9930   -8.3460 C.3     2  LIG2       -0.0284
      4    C      -68.4350  -88.7980   -9.2150 C.3     2  LIG2       -0.0319
      5    C      -70.8380  -89.4070  -10.1260 C.3     2  LIG2       -0.0294
      6    C      -70.4120  -90.5400  -11.1020 C.3     2  LIG2       -0.0090
      7    C      -68.0430  -88.4120  -10.6600 C.3     2  LIG2       -0.0468
      8    C      -72.3350  -89.6480   -9.7700 C.3     2  LIG2       -0.0404
      9    C      -69.3760  -90.1260  -12.2040 C.3     2  LIG2        0.0664
     10    C      -71.7430  -91.1140  -11.6200 C.3     2  LIG2       -0.0471
     11    C      -68.0170  -89.6100  -11.6380 C.3     2  LIG2       -0.0237
     12    C      -69.9570  -86.6420   -8.8230 C.3     2  LIG2       -0.0593
     13    C      -69.0930  -87.9840   -6.8310 C.3     2  LIG2       -0.0593
     14    C      -72.7170  -90.9680  -10.4550 C.3     2  LIG2       -0.0498
     15    C      -72.6950  -89.6310   -8.2700 C.3     2  LIG2       -0.0621
     16    C      -69.0850  -91.2920  -13.1780 C.3     2  LIG2       -0.0358
     17    H      -69.9230  -90.1730   -8.2720 H       2  LIG2        0.0312
     18    H      -67.5960  -89.2650   -8.6960 H       2  LIG2        0.0309
     19    H      -70.8260  -88.4740  -10.6840 H       2  LIG2        0.0310
     20    H      -69.9500  -91.3400  -10.5190 H       2  LIG2        0.0331
     21    H      -68.6680  -87.6210  -11.0700 H       2  LIG2        0.0269
     22    H      -67.0390  -87.9890  -10.6230 H       2  LIG2        0.0269
     23    H      -72.9240  -88.8590  -10.2420 H       2  LIG2        0.0301
     24    H      -72.1030  -90.5550  -12.4850 H       2  LIG2        0.0269
     25    H      -71.6480  -92.1590  -11.9220 H       2  LIG2        0.0269
     26    H      -67.3620  -89.3520  -12.4720 H       2  LIG2        0.0293
     27    H      -67.5110  -90.4370  -11.1360 H       2  LIG2        0.0293
     28    H      -69.2640  -85.8280   -8.6070 H       2  LIG2        0.0235
     29    H      -70.8920  -86.4230   -8.3050 H       2  LIG2        0.0235
     30    H      -70.1740  -86.5920   -9.8860 H       2  LIG2        0.0235
     31    H      -68.3670  -87.2130   -6.5720 H       2  LIG2        0.0235
     32    H      -68.6930  -88.9370   -6.4830 H       2  LIG2        0.0235
     33    H      -70.0050  -87.7910   -6.2660 H       2  LIG2        0.0235
     34    H      -72.6080  -91.8090   -9.7670 H       2  LIG2        0.0268
     35    H      -73.7510  -90.9640  -10.8020 H       2  LIG2        0.0268
     36    H      -72.1960  -90.4300   -7.7210 H       2  LIG2        0.0233
     37    H      -73.7670  -89.7580   -8.1260 H       2  LIG2        0.0233
     38    H      -72.4160  -88.6820   -7.8090 H       2  LIG2        0.0233
     39    H      -68.6770  -92.1540  -12.6490 H       2  LIG2        0.0257
     40    H      -68.3640  -91.0090  -13.9460 H       2  LIG2        0.0257
     41    H      -69.9840  -91.6250  -13.6980 H       2  LIG2        0.0257
     42    H      -70.0930  -88.3270  -12.4290 H       2  LIG2        0.2102
@<TRIPOS>BOND
     1    40    16    1
     2    41    16    1
     3    16    39    1
     4    16     9    1
     5     1    42    1
     6     1     9    1
     7    24    10    1
     8    26    11    1
     9     9    11    1
    10     9     6    1
    11    25    10    1
    12    11    27    1
    13    11     7    1
    14    10     6    1
    15    10    14    1
    16     6    20    1
    17     6     5    1
    18    21     7    1
    19    35    14    1
    20    19     5    1
    21     7    22    1
    22     7     4    1
    23    14     8    1
    24    14    34    1
    25    23     8    1
    26     5     8    1
    27     5     2    1
    28    30    12    1
    29     8    15    1
    30     4     2    1
    31     4    18    1
    32     4     3    1
    33     2     3    1
    34     2    17    1
    35    12    28    1
    36    12     3    1
    37    12    29    1
    38     3    13    1
    39    15    37    1
    40    15    38    1
    41    15    36    1
    42    13    31    1
    43    13    32    1
    44    13    33    1
@<TRIPOS>MOLECULE
11996452_4_run_16.pdb
 42 44 0 0 0
SMALL
GASTEIGER

@<TRIPOS>ATOM
      1    O      -71.0460  -85.9090   -6.6140 O.3     2  LIG2       -0.3886
      2    C      -69.5030  -89.4480   -7.9060 C.3     2  LIG2       -0.0289
      3    C      -68.7830  -89.2510   -9.2270 C.3     2  LIG2       -0.0284
      4    C      -70.2730  -88.9980   -9.1530 C.3     2  LIG2       -0.0319
      5    C      -69.4040  -88.4550   -6.7190 C.3     2  LIG2       -0.0294
      6    C      -70.7890  -88.2670   -6.0380 C.3     2  LIG2       -0.0090
      7    C      -70.9180  -87.5940   -9.1790 C.3     2  LIG2       -0.0468
      8    C      -68.3880  -88.8180   -5.5960 C.3     2  LIG2       -0.0404
      9    C      -71.7060  -87.1640   -6.6710 C.3     2  LIG2        0.0664
     10    C      -70.4560  -88.0830   -4.5460 C.3     2  LIG2       -0.0471
     11    C      -72.0730  -87.4220   -8.1650 C.3     2  LIG2       -0.0237
     12    C      -67.7780  -88.0940   -9.4290 C.3     2  LIG2       -0.0593
     13    C      -68.3260  -90.5310   -9.9520 C.3     2  LIG2       -0.0593
     14    C      -69.2160  -88.9390   -4.3100 C.3     2  LIG2       -0.0498
     15    C      -67.4980  -90.0520   -5.8490 C.3     2  LIG2       -0.0621
     16    C      -73.0190  -86.9900   -5.8710 C.3     2  LIG2       -0.0358
     17    H      -69.6970  -90.4680   -7.5700 H       2  LIG2        0.0312
     18    H      -70.9010  -89.7250   -9.6720 H       2  LIG2        0.0309
     19    H      -69.0860  -87.4820   -7.0860 H       2  LIG2        0.0310
     20    H      -71.3360  -89.2100   -6.1070 H       2  LIG2        0.0331
     21    H      -70.1930  -86.7940   -9.0450 H       2  LIG2        0.0269
     22    H      -71.3250  -87.4410  -10.1790 H       2  LIG2        0.0269
     23    H      -67.7140  -87.9690   -5.4660 H       2  LIG2        0.0301
     24    H      -70.2440  -87.0380   -4.3170 H       2  LIG2        0.0269
     25    H      -71.2780  -88.3990   -3.9020 H       2  LIG2        0.0269
     26    H      -72.7140  -86.6110   -8.5160 H       2  LIG2        0.0293
     27    H      -72.7010  -88.3130   -8.2220 H       2  LIG2        0.0293
     28    H      -67.6640  -87.8660  -10.4900 H       2  LIG2        0.0235
     29    H      -66.7950  -88.3690   -9.0450 H       2  LIG2        0.0235
     30    H      -68.0540  -87.1640   -8.9390 H       2  LIG2        0.0235
     31    H      -68.2420  -90.3650  -11.0260 H       2  LIG2        0.0235
     32    H      -69.0240  -91.3570   -9.8060 H       2  LIG2        0.0235
     33    H      -67.3540  -90.8610   -9.5860 H       2  LIG2        0.0235
     34    H      -69.5050  -89.9760   -4.1290 H       2  LIG2        0.0268
     35    H      -68.6620  -88.5990   -3.4330 H       2  LIG2        0.0268
     36    H      -68.0840  -90.9680   -5.9330 H       2  LIG2        0.0233
     37    H      -66.7890  -90.1940   -5.0330 H       2  LIG2        0.0233
     38    H      -66.9180  -89.9380   -6.7670 H       2  LIG2        0.0233
     39    H      -73.5910  -87.9180   -5.8460 H       2  LIG2        0.0257
     40    H      -73.6620  -86.2240   -6.3080 H       2  LIG2        0.0257
     41    H      -72.8340  -86.6920   -4.8390 H       2  LIG2        0.0257
     42    H      -71.5390  -85.2820   -7.1490 H       2  LIG2        0.2102
@<TRIPOS>BOND
     1    31    13    1
     2    28    12    1
     3    22     7    1
     4    13    32    1
     5    13    33    1
     6    13     3    1
     7    18     4    1
     8    12     3    1
     9    12    29    1
    10    12    30    1
    11     3     4    1
    12     3     2    1
    13     7     4    1
    14     7    21    1
    15     7    11    1
    16     4     2    1
    17    26    11    1
    18    27    11    1
    19    11     9    1
    20     2    17    1
    21     2     5    1
    22    42     1    1
    23    19     5    1
    24    38    15    1
    25     5     6    1
    26     5     8    1
    27     9     1    1
    28     9     6    1
    29     9    16    1
    30    40    16    1
    31    20     6    1
    32     6    10    1
    33    36    15    1
    34    16    39    1
    35    16    41    1
    36    15     8    1
    37    15    37    1
    38     8    23    1
    39     8    14    1
    40    10    24    1
    41    10    14    1
    42    10    25    1
    43    14    34    1
    44    14    35    1
@<TRIPOS>MOLECULE
11996452_4_run_3.pdb
 42 44 0 0 0
SMALL
GASTEIGER

@<TRIPOS>ATOM
      1    O      -67.2890  -87.9840   -7.7350 O.3     2  LIG2       -0.3886
      2    C      -70.8260  -89.8300   -6.9270 C.3     2  LIG2       -0.0289
      3    C      -70.9320  -90.1270   -5.4430 C.3     2  LIG2       -0.0284
      4    C      -69.8400  -90.7920   -6.2540 C.3     2  LIG2       -0.0319
      5    C      -70.2660  -88.5020   -7.4980 C.3     2  LIG2       -0.0294
      6    C      -69.3710  -88.7680   -8.7410 C.3     2  LIG2       -0.0090
      7    C      -68.3440  -90.4090   -6.1750 C.3     2  LIG2       -0.0468
      8    C      -71.3170  -87.4300   -7.9120 C.3     2  LIG2       -0.0404
      9    C      -67.8650  -89.0780   -8.4320 C.3     2  LIG2        0.0664
     10    C      -69.6280  -87.5590   -9.6590 C.3     2  LIG2       -0.0471
     11    C      -67.6450  -90.3470   -7.5530 C.3     2  LIG2       -0.0237
     12    C      -70.6060  -89.0500   -4.3830 C.3     2  LIG2       -0.0593
     13    C      -72.1150  -91.0120   -5.0060 C.3     2  LIG2       -0.0593
     14    C      -71.0820  -87.1740   -9.4080 C.3     2  LIG2       -0.0498
     15    C      -72.7910  -87.7520   -7.5890 C.3     2  LIG2       -0.0621
     16    C      -67.0400  -89.2370   -9.7300 C.3     2  LIG2       -0.0358
     17    H      -71.5530  -90.2900   -7.5990 H       2  LIG2        0.0312
     18    H      -69.9590  -91.8650   -6.4160 H       2  LIG2        0.0309
     19    H      -69.6470  -88.0170   -6.7470 H       2  LIG2        0.0310
     20    H      -69.7690  -89.6350   -9.2720 H       2  LIG2        0.0331
     21    H      -68.1740  -89.4780   -5.6380 H       2  LIG2        0.0269
     22    H      -67.8440  -91.1740   -5.5800 H       2  LIG2        0.0269
     23    H      -71.0770  -86.5030   -7.3870 H       2  LIG2        0.0301
     24    H      -68.9680  -86.7270   -9.4080 H       2  LIG2        0.0269
     25    H      -69.4630  -87.8010  -10.7100 H       2  LIG2        0.0269
     26    H      -66.5730  -90.4860   -7.3950 H       2  LIG2        0.0293
     27    H      -67.9550  -91.2260   -8.1220 H       2  LIG2        0.0293
     28    H      -70.3550  -89.5140   -3.4290 H       2  LIG2        0.0235
     29    H      -71.4690  -88.4040   -4.2160 H       2  LIG2        0.0235
     30    H      -69.7760  -88.3980   -4.6400 H       2  LIG2        0.0235
     31    H      -71.8910  -91.5350   -4.0760 H       2  LIG2        0.0235
     32    H      -72.3590  -91.7690   -5.7540 H       2  LIG2        0.0235
     33    H      -73.0110  -90.4130   -4.8490 H       2  LIG2        0.0235
     34    H      -71.7450  -87.7920  -10.0170 H       2  LIG2        0.0268
     35    H      -71.2690  -86.1340   -9.6790 H       2  LIG2        0.0268
     36    H      -73.1420  -88.6360   -8.1210 H       2  LIG2        0.0233
     37    H      -73.4410  -86.9230   -7.8700 H       2  LIG2        0.0233
     38    H      -72.9300  -87.9250   -6.5200 H       2  LIG2        0.0233
     39    H      -67.4240  -90.0520  -10.3450 H       2  LIG2        0.0257
     40    H      -65.9910  -89.4550   -9.5210 H       2  LIG2        0.0257
     41    H      -67.0570  -88.3340  -10.3410 H       2  LIG2        0.0257
     42    H      -66.3520  -88.1590   -7.6160 H       2  LIG2        0.2102
@<TRIPOS>BOND
     1    25    10    1
     2    39    16    1
     3    41    16    1
     4    34    14    1
     5    16    40    1
     6    16     9    1
     7    35    14    1
     8    10    14    1
     9    10    24    1
    10    10     6    1
    11    14     8    1
    12    20     6    1
    13     6     9    1
    14     6     5    1
    15     9     1    1
    16     9    11    1
    17    27    11    1
    18    36    15    1
    19     8    15    1
    20     8     5    1
    21     8    23    1
    22    37    15    1
    23     1    42    1
    24    17     2    1
    25    15    38    1
    26    11    26    1
    27    11     7    1
    28     5     2    1
    29     5    19    1
    30     2     4    1
    31     2     3    1
    32    18     4    1
    33     4     7    1
    34     4     3    1
    35     7    21    1
    36     7    22    1
    37    32    13    1
    38     3    13    1
    39     3    12    1
    40    13    33    1
    41    13    31    1
    42    30    12    1
    43    12    29    1
    44    12    28    1
@<TRIPOS>MOLECULE
11996452_4_run_23.pdb
 42 44 0 0 0
SMALL
GASTEIGER

@<TRIPOS>ATOM
      1    O      -69.2450  -87.9590  -10.9290 O.3     2  LIG2       -0.3886
      2    C      -69.2500  -89.7760   -7.2860 C.3     2  LIG2       -0.0289
      3    C      -68.0990  -89.2590   -6.4440 C.3     2  LIG2       -0.0284
      4    C      -67.7990  -90.0120   -7.7230 C.3     2  LIG2       -0.0319
      5    C      -70.1360  -88.8690   -8.1780 C.3     2  LIG2       -0.0294
      6    C      -70.4480  -89.5610   -9.5340 C.3     2  LIG2       -0.0090
      7    C      -67.2820  -89.3490   -9.0200 C.3     2  LIG2       -0.0468
      8    C      -71.4970  -88.4180   -7.5700 C.3     2  LIG2       -0.0404
      9    C      -69.3800  -89.3460  -10.6610 C.3     2  LIG2        0.0664
     10    C      -71.8780  -89.1010   -9.8740 C.3     2  LIG2       -0.0471
     11    C      -67.9600  -89.8830  -10.3030 C.3     2  LIG2       -0.0237
     12    C      -67.8150  -87.7450   -6.3150 C.3     2  LIG2       -0.0593
     13    C      -67.8360  -90.0000   -5.1190 C.3     2  LIG2       -0.0593
     14    C      -72.5740  -88.9480   -8.5260 C.3     2  LIG2       -0.0498
     15    C      -71.7580  -88.8130   -6.1020 C.3     2  LIG2       -0.0621
     16    C      -69.8220  -89.9940  -11.9950 C.3     2  LIG2       -0.0358
     17    H      -69.7900  -90.6580   -6.9370 H       2  LIG2        0.0312
     18    H      -67.3680  -91.0070   -7.5940 H       2  LIG2        0.0309
     19    H      -69.6040  -87.9460   -8.3970 H       2  LIG2        0.0310
     20    H      -70.5140  -90.6380   -9.3630 H       2  LIG2        0.0331
     21    H      -67.3510  -88.2640   -8.9960 H       2  LIG2        0.0269
     22    H      -66.2150  -89.5640   -9.0910 H       2  LIG2        0.0269
     23    H      -71.5390  -87.3270   -7.6120 H       2  LIG2        0.0301
     24    H      -71.8690  -88.1480  -10.4050 H       2  LIG2        0.0269
     25    H      -72.4010  -89.8230  -10.5050 H       2  LIG2        0.0269
     26    H      -67.2890  -89.6960  -11.1440 H       2  LIG2        0.0293
     27    H      -68.0070  -90.9720  -10.2260 H       2  LIG2        0.0293
     28    H      -66.7780  -87.5730   -6.0250 H       2  LIG2        0.0235
     29    H      -68.4480  -87.3010   -5.5470 H       2  LIG2        0.0235
     30    H      -67.9820  -87.1740   -7.2240 H       2  LIG2        0.0235
     31    H      -66.7960  -89.8940   -4.8100 H       2  LIG2        0.0235
     32    H      -68.0440  -91.0680   -5.1980 H       2  LIG2        0.0235
     33    H      -68.4650  -89.6060   -4.3210 H       2  LIG2        0.0235
     34    H      -72.9540  -89.9150   -8.1870 H       2  LIG2        0.0268
     35    H      -73.4280  -88.2720   -8.5950 H       2  LIG2        0.0268
     36    H      -71.7940  -89.8950   -5.9710 H       2  LIG2        0.0233
     37    H      -72.7090  -88.4110   -5.7540 H       2  LIG2        0.0233
     38    H      -70.9800  -88.4210   -5.4440 H       2  LIG2        0.0233
     39    H      -69.9690  -91.0690  -11.8810 H       2  LIG2        0.0257
     40    H      -69.0810  -89.8490  -12.7820 H       2  LIG2        0.0257
     41    H      -70.7590  -89.5750  -12.3630 H       2  LIG2        0.0257
     42    H      -70.0360  -87.6590  -11.3830 H       2  LIG2        0.2102
@<TRIPOS>BOND
     1    40    16    1
     2    41    16    1
     3    16    39    1
     4    16     9    1
     5    42     1    1
     6    26    11    1
     7     1     9    1
     8     9    11    1
     9     9     6    1
    10    25    10    1
    11    24    10    1
    12    11    27    1
    13    11     7    1
    14    10     6    1
    15    10    14    1
    16     6    20    1
    17     6     5    1
    18    22     7    1
    19     7    21    1
    20     7     4    1
    21    35    14    1
    22    14    34    1
    23    14     8    1
    24    19     5    1
    25     5     8    1
    26     5     2    1
    27     4    18    1
    28     4     2    1
    29     4     3    1
    30    23     8    1
    31     8    15    1
    32     2    17    1
    33     2     3    1
    34    30    12    1
    35     3    12    1
    36     3    13    1
    37    12    28    1
    38    12    29    1
    39    15    36    1
    40    15    37    1
    41    15    38    1
    42    32    13    1
    43    13    31    1
    44    13    33    1
@<TRIPOS>MOLECULE
11996452_4_run_6.pdb
 42 44 0 0 0
SMALL
GASTEIGER

@<TRIPOS>ATOM
      1    O      -70.9660  -88.1590  -10.1790 O.3     2  LIG2       -0.3886
      2    C      -69.2350  -88.7830   -6.5480 C.3     2  LIG2       -0.0289
      3    C      -69.0450  -87.4610   -5.8270 C.3     2  LIG2       -0.0284
      4    C      -68.3080  -87.7070   -7.1260 C.3     2  LIG2       -0.0319
      5    C      -70.5110  -89.1470   -7.3490 C.3     2  LIG2       -0.0294
      6    C      -70.1450  -89.8890   -8.6650 C.3     2  LIG2       -0.0090
      7    C      -68.6730  -87.0380   -8.4710 C.3     2  LIG2       -0.0468
      8    C      -71.5670  -90.0200   -6.6100 C.3     2  LIG2       -0.0404
      9    C      -69.8340  -88.9670   -9.8940 C.3     2  LIG2        0.0664
     10    C      -71.2900  -90.8990   -8.8620 C.3     2  LIG2       -0.0471
     11    C      -68.6270  -88.0040   -9.6780 C.3     2  LIG2       -0.0237
     12    C      -70.1890  -86.4260   -5.7320 C.3     2  LIG2       -0.0593
     13    C      -68.2110  -87.5030   -4.5330 C.3     2  LIG2       -0.0593
     14    C      -71.7140  -91.2960   -7.4510 C.3     2  LIG2       -0.0498
     15    C      -71.2910  -90.3170   -5.1210 C.3     2  LIG2       -0.0621
     16    C      -69.5720  -89.7950  -11.1740 C.3     2  LIG2       -0.0358
     17    H      -68.7400  -89.6680   -6.1430 H       2  LIG2        0.0312
     18    H      -67.2290  -87.8420   -7.0390 H       2  LIG2        0.0309
     19    H      -71.0380  -88.2360   -7.6240 H       2  LIG2        0.0310
     20    H      -69.2480  -90.4870   -8.4840 H       2  LIG2        0.0331
     21    H      -69.6370  -86.5340   -8.4450 H       2  LIG2        0.0269
     22    H      -67.9440  -86.2460   -8.6480 H       2  LIG2        0.0269
     23    H      -72.5250  -89.4970   -6.6510 H       2  LIG2        0.0301
     24    H      -72.1270  -90.4460   -9.3940 H       2  LIG2        0.0269
     25    H      -70.9720  -91.7720   -9.4340 H       2  LIG2        0.0269
     26    H      -68.4830  -87.4090  -10.5830 H       2  LIG2        0.0293
     27    H      -67.7160  -88.5990   -9.5930 H       2  LIG2        0.0293
     28    H      -69.7890  -85.4280   -5.5480 H       2  LIG2        0.0235
     29    H      -70.8580  -86.6690   -4.9060 H       2  LIG2        0.0235
     30    H      -70.8080  -86.3530   -6.6220 H       2  LIG2        0.0235
     31    H      -67.7510  -86.5360   -4.3300 H       2  LIG2        0.0235
     32    H      -67.4070  -88.2400   -4.5860 H       2  LIG2        0.0235
     33    H      -68.8330  -87.7660   -3.6770 H       2  LIG2        0.0235
     34    H      -71.0640  -92.0880   -7.0720 H       2  LIG2        0.0268
     35    H      -72.7350  -91.6800   -7.4370 H       2  LIG2        0.0268
     36    H      -70.3770  -90.8960   -4.9830 H       2  LIG2        0.0233
     37    H      -72.1080  -90.8900   -4.6810 H       2  LIG2        0.0233
     38    H      -71.1950  -89.3940   -4.5470 H       2  LIG2        0.0233
     39    H      -68.7210  -90.4660  -11.0420 H       2  LIG2        0.0257
     40    H      -69.3540  -89.1580  -12.0330 H       2  LIG2        0.0257
     41    H      -70.4310  -90.4090  -11.4490 H       2  LIG2        0.0257
     42    H      -70.7890  -87.6590  -10.9790 H       2  LIG2        0.2102
@<TRIPOS>BOND
     1    40    16    1
     2    41    16    1
     3    16    39    1
     4    16     9    1
     5    42     1    1
     6    26    11    1
     7     1     9    1
     8     9    11    1
     9     9     6    1
    10    11    27    1
    11    11     7    1
    12    25    10    1
    13    24    10    1
    14    10     6    1
    15    10    14    1
    16     6    20    1
    17     6     5    1
    18    22     7    1
    19     7    21    1
    20     7     4    1
    21    19     5    1
    22    14    35    1
    23    14    34    1
    24    14     8    1
    25     5     8    1
    26     5     2    1
    27     4    18    1
    28     4     2    1
    29     4     3    1
    30    23     8    1
    31    30    12    1
    32     8    15    1
    33     2    17    1
    34     2     3    1
    35     3    12    1
    36     3    13    1
    37    12    28    1
    38    12    29    1
    39    15    36    1
    40    15    37    1
    41    15    38    1
    42    32    13    1
    43    13    31    1
    44    13    33    1
@<TRIPOS>MOLECULE
11996452_4_run_3.pdb
 42 44 0 0 0
SMALL
GASTEIGER

@<TRIPOS>ATOM
      1    O      -63.0390  -73.2770   -7.1790 O.3     2  LIG2       -0.3886
      2    C      -59.3950  -71.4630   -7.0930 C.3     2  LIG2       -0.0289
      3    C      -58.4470  -72.2410   -6.2000 C.3     2  LIG2       -0.0284
      4    C      -59.6800  -71.6070   -5.5930 C.3     2  LIG2       -0.0319
      5    C      -60.3820  -72.1310   -8.0850 C.3     2  LIG2       -0.0294
      6    C      -61.7560  -71.4030   -8.0730 C.3     2  LIG2       -0.0090
      7    C      -60.9260  -72.3980   -5.1320 C.3     2  LIG2       -0.0468
      8    C      -59.9210  -72.2160   -9.5690 C.3     2  LIG2       -0.0404
      9    C      -62.7710  -71.8960   -6.9850 C.3     2  LIG2        0.0664
     10    C      -62.2440  -71.4920   -9.5310 C.3     2  LIG2       -0.0471
     11    C      -62.2650  -71.7290   -5.5200 C.3     2  LIG2       -0.0237
     12    C      -58.3060  -73.7750   -6.3220 C.3     2  LIG2       -0.0593
     13    C      -57.0940  -71.5710   -5.8940 C.3     2  LIG2       -0.0593
     14    C      -60.9750  -71.4450  -10.3760 C.3     2  LIG2       -0.0498
     15    C      -58.4820  -71.7450   -9.8690 C.3     2  LIG2       -0.0621
     16    C      -64.1350  -71.1780   -7.1130 C.3     2  LIG2       -0.0358
     17    H      -59.0930  -70.4680   -7.4260 H       2  LIG2        0.0312
     18    H      -59.4980  -70.7510   -4.9400 H       2  LIG2        0.0309
     19    H      -60.5570  -73.1610   -7.7830 H       2  LIG2        0.0310
     20    H      -61.5800  -70.3410   -7.8830 H       2  LIG2        0.0331
     21    H      -60.9210  -73.4300   -5.4740 H       2  LIG2        0.0269
     22    H      -60.8860  -72.4600   -4.0440 H       2  LIG2        0.0269
     23    H      -59.9790  -73.2600   -9.8810 H       2  LIG2        0.0301
     24    H      -62.7820  -72.4240   -9.7090 H       2  LIG2        0.0269
     25    H      -62.9160  -70.6720   -9.7880 H       2  LIG2        0.0269
     26    H      -63.0350  -72.0920   -4.8370 H       2  LIG2        0.0293
     27    H      -62.1810  -70.6630   -5.2990 H       2  LIG2        0.0293
     28    H      -57.9140  -74.1990   -5.3960 H       2  LIG2        0.0235
     29    H      -57.6110  -74.0340   -7.1210 H       2  LIG2        0.0235
     30    H      -59.2340  -74.2990   -6.5350 H       2  LIG2        0.0235
     31    H      -56.6820  -71.9300   -4.9510 H       2  LIG2        0.0235
     32    H      -57.1810  -70.4860   -5.8170 H       2  LIG2        0.0235
     33    H      -56.3680  -71.7810   -6.6790 H       2  LIG2        0.0235
     34    H      -60.6660  -70.4090  -10.5310 H       2  LIG2        0.0268
     35    H      -61.1380  -71.8850  -11.3610 H       2  LIG2        0.0268
     36    H      -58.3430  -70.6870   -9.6440 H       2  LIG2        0.0233
     37    H      -58.2370  -71.8890  -10.9210 H       2  LIG2        0.0233
     38    H      -57.7540  -72.3110   -9.2850 H       2  LIG2        0.0233
     39    H      -64.0250  -70.0990   -6.9950 H       2  LIG2        0.0257
     40    H      -64.8450  -71.5170   -6.3580 H       2  LIG2        0.0257
     41    H      -64.6010  -71.3530   -8.0840 H       2  LIG2        0.0257
     42    H      -63.6050  -73.5790   -6.4640 H       2  LIG2        0.2102
@<TRIPOS>BOND
     1    35    14    1
     2    37    15    1
     3    34    14    1
     4    14     8    1
     5    14    10    1
     6    23     8    1
     7    15    36    1
     8    15     8    1
     9    15    38    1
    10    25    10    1
    11    24    10    1
    12     8     5    1
    13    10     6    1
    14     5     6    1
    15     5    19    1
    16     5     2    1
    17    41    16    1
    18     6    20    1
    19     6     9    1
    20    17     2    1
    21     1     9    1
    22     1    42    1
    23    29    12    1
    24    16    39    1
    25    16     9    1
    26    16    40    1
    27     2     3    1
    28     2     4    1
    29     9    11    1
    30    33    13    1
    31    30    12    1
    32    12     3    1
    33    12    28    1
    34     3    13    1
    35     3     4    1
    36    13    32    1
    37    13    31    1
    38     4     7    1
    39     4    18    1
    40    11    27    1
    41    11     7    1
    42    11    26    1
    43    21     7    1
    44     7    22    1
@<TRIPOS>MOLECULE
11996452_4_run_19.pdb
 42 44 0 0 0
SMALL
GASTEIGER

@<TRIPOS>ATOM
      1    O      -66.5590  -89.2220   -9.6080 O.3     2  LIG2       -0.3886
      2    C      -69.2850  -89.5260   -6.6000 C.3     2  LIG2       -0.0289
      3    C      -68.5930  -89.9220   -5.3080 C.3     2  LIG2       -0.0284
      4    C      -68.5730  -90.8800   -6.4800 C.3     2  LIG2       -0.0319
      5    C      -68.7080  -88.4910   -7.5990 C.3     2  LIG2       -0.0294
      6    C      -68.9240  -88.9580   -9.0660 C.3     2  LIG2       -0.0090
      7    C      -67.3270  -91.1590   -7.3520 C.3     2  LIG2       -0.0468
      8    C      -69.2660  -87.0410   -7.4920 C.3     2  LIG2       -0.0404
      9    C      -67.8090  -89.8940   -9.6460 C.3     2  LIG2        0.0664
     10    C      -69.1730  -87.6530   -9.8460 C.3     2  LIG2       -0.0471
     11    C      -67.6330  -91.2330   -8.8660 C.3     2  LIG2       -0.0237
     12    C      -67.3100  -89.2040   -4.8310 C.3     2  LIG2       -0.0593
     13    C      -69.5110  -90.2840   -4.1260 C.3     2  LIG2       -0.0593
     14    C      -69.8900  -86.7350   -8.8610 C.3     2  LIG2       -0.0498
     15    C      -70.2330  -86.7620   -6.3230 C.3     2  LIG2       -0.0621
     16    C      -68.0660  -90.2290  -11.1350 C.3     2  LIG2       -0.0358
     17    H      -70.3750  -89.5650   -6.6350 H       2  LIG2        0.0312
     18    H      -69.1770  -91.7810   -6.3630 H       2  LIG2        0.0309
     19    H      -67.6360  -88.3940   -7.4420 H       2  LIG2        0.0310
     20    H      -69.8620  -89.5160   -9.1140 H       2  LIG2        0.0331
     21    H      -66.5220  -90.4490   -7.1770 H       2  LIG2        0.0269
     22    H      -66.9250  -92.1250   -7.0440 H       2  LIG2        0.0269
     23    H      -68.4200  -86.3630   -7.3660 H       2  LIG2        0.0301
     24    H      -68.2330  -87.2020  -10.1670 H       2  LIG2        0.0269
     25    H      -69.7790  -87.8190  -10.7380 H       2  LIG2        0.0269
     26    H      -66.8440  -91.8180   -9.3430 H       2  LIG2        0.0293
     27    H      -68.5360  -91.8330   -8.9940 H       2  LIG2        0.0293
     28    H      -66.7490  -89.8370   -4.1430 H       2  LIG2        0.0235
     29    H      -67.5590  -88.2840   -4.3020 H       2  LIG2        0.0235
     30    H      -66.6230  -88.9280   -5.6270 H       2  LIG2        0.0235
     31    H      -69.0090  -90.9560   -3.4290 H       2  LIG2        0.0235
     32    H      -70.4260  -90.7820   -4.4530 H       2  LIG2        0.0235
     33    H      -69.8090  -89.3920   -3.5760 H       2  LIG2        0.0235
     34    H      -70.9600  -86.9500   -8.8580 H       2  LIG2        0.0268
     35    H      -69.7710  -85.6860   -9.1390 H       2  LIG2        0.0268
     36    H      -71.1450  -87.3550   -6.3960 H       2  LIG2        0.0233
     37    H      -70.5280  -85.7130   -6.3040 H       2  LIG2        0.0233
     38    H      -69.7640  -86.9850   -5.3620 H       2  LIG2        0.0233
     39    H      -69.0220  -90.7360  -11.2650 H       2  LIG2        0.0257
     40    H      -67.2930  -90.8810  -11.5430 H       2  LIG2        0.0257
     41    H      -68.0840  -89.3350  -11.7590 H       2  LIG2        0.0257
     42    H      -66.3030  -89.1100   -8.6900 H       2  LIG2        0.2102
@<TRIPOS>BOND
     1    41    16    1
     2    40    16    1
     3    39    16    1
     4    16     9    1
     5    25    10    1
     6    24    10    1
     7    10     6    1
     8    10    14    1
     9     9     1    1
    10     9     6    1
    11     9    11    1
    12     1    42    1
    13    26    11    1
    14    35    14    1
    15    20     6    1
    16     6     5    1
    17    27    11    1
    18    11     7    1
    19    14    34    1
    20    14     8    1
    21     5     8    1
    22     5    19    1
    23     5     2    1
    24     8    23    1
    25     8    15    1
    26     7    21    1
    27     7    22    1
    28     7     4    1
    29    17     2    1
    30     2     4    1
    31     2     3    1
    32     4    18    1
    33     4     3    1
    34    36    15    1
    35    15    37    1
    36    15    38    1
    37    30    12    1
    38     3    12    1
    39     3    13    1
    40    12    29    1
    41    12    28    1
    42    32    13    1
    43    13    33    1
    44    13    31    1
@<TRIPOS>MOLECULE
11996452_4_run_23.pdb
 42 44 0 0 0
SMALL
GASTEIGER

@<TRIPOS>ATOM
      1    O      -60.2460  -74.2600   -5.8780 O.3     2  LIG2       -0.3886
      2    C      -59.4140  -71.2580   -8.4990 C.3     2  LIG2       -0.0289
      3    C      -58.3630  -71.7130   -9.4950 C.3     2  LIG2       -0.0284
      4    C      -58.0020  -71.6270   -8.0280 C.3     2  LIG2       -0.0319
      5    C      -60.5910  -72.1500   -8.0270 C.3     2  LIG2       -0.0294
      6    C      -60.8400  -71.9760   -6.5030 C.3     2  LIG2       -0.0090
      7    C      -57.8080  -72.8550   -7.1080 C.3     2  LIG2       -0.0468
      8    C      -61.9560  -71.9300   -8.7430 C.3     2  LIG2       -0.0404
      9    C      -59.9820  -72.8990   -5.5700 C.3     2  LIG2        0.0664
     10    C      -62.3670  -72.1080   -6.3510 C.3     2  LIG2       -0.0471
     11    C      -58.4430  -72.6880   -5.7080 C.3     2  LIG2       -0.0237
     12    C      -58.4780  -73.0740  -10.2190 C.3     2  LIG2       -0.0593
     13    C      -57.7850  -70.6270  -10.4220 C.3     2  LIG2       -0.0593
     14    C      -62.9430  -71.5280   -7.6380 C.3     2  LIG2       -0.0498
     15    C      -61.9580  -70.9440   -9.9300 C.3     2  LIG2       -0.0621
     16    C      -60.3660  -72.7180   -4.0820 C.3     2  LIG2       -0.0358
     17    H      -59.6640  -70.1970   -8.4610 H       2  LIG2        0.0312
     18    H      -57.3130  -70.8260   -7.7580 H       2  LIG2        0.0309
     19    H      -60.3450  -73.1960   -8.2000 H       2  LIG2        0.0310
     20    H      -60.6020  -70.9450   -6.2320 H       2  LIG2        0.0331
     21    H      -58.1580  -73.7810   -7.5600 H       2  LIG2        0.0269
     22    H      -56.7340  -72.9940   -6.9740 H       2  LIG2        0.0269
     23    H      -62.2890  -72.8920   -9.1360 H       2  LIG2        0.0301
     24    H      -62.6620  -73.1530   -6.2420 H       2  LIG2        0.0269
     25    H      -62.7390  -71.5700   -5.4780 H       2  LIG2        0.0269
     26    H      -57.9310  -73.3660   -5.0220 H       2  LIG2        0.0293
     27    H      -58.1930  -71.6890   -5.3460 H       2  LIG2        0.0293
     28    H      -57.5000  -73.4060  -10.5700 H       2  LIG2        0.0235
     29    H      -59.1280  -72.9910  -11.0910 H       2  LIG2        0.0235
     30    H      -58.8780  -73.8790   -9.6090 H       2  LIG2        0.0235
     31    H      -56.7850  -70.8930  -10.7630 H       2  LIG2        0.0235
     32    H      -57.7110  -69.6590   -9.9230 H       2  LIG2        0.0235
     33    H      -58.4150  -70.4880  -11.3010 H       2  LIG2        0.0235
     34    H      -63.0180  -70.4410   -7.5600 H       2  LIG2        0.0268
     35    H      -63.9480  -71.9090   -7.8290 H       2  LIG2        0.0268
     36    H      -61.6940  -69.9320   -9.6200 H       2  LIG2        0.0233
     37    H      -62.9430  -70.8960  -10.3940 H       2  LIG2        0.0233
     38    H      -61.2510  -71.2550  -10.7010 H       2  LIG2        0.0233
     39    H      -60.2120  -71.6880   -3.7580 H       2  LIG2        0.0257
     40    H      -59.7710  -73.3570   -3.4290 H       2  LIG2        0.0257
     41    H      -61.4120  -72.9650   -3.8960 H       2  LIG2        0.0257
     42    H      -59.6980  -74.8100   -5.3120 H       2  LIG2        0.2102
@<TRIPOS>BOND
     1    33    13    1
     2    29    12    1
     3    31    13    1
     4    38    15    1
     5    28    12    1
     6    13    32    1
     7    13     3    1
     8    37    15    1
     9    12    30    1
    10    12     3    1
    11    15    36    1
    12    15     8    1
    13     3     2    1
    14     3     4    1
    15    23     8    1
    16     8     5    1
    17     8    14    1
    18     2    17    1
    19     2     4    1
    20     2     5    1
    21    19     5    1
    22     4    18    1
    23     4     7    1
    24     5     6    1
    25    35    14    1
    26    14    34    1
    27    14    10    1
    28    21     7    1
    29     7    22    1
    30     7    11    1
    31     6    10    1
    32     6    20    1
    33     6     9    1
    34    10    24    1
    35    10    25    1
    36     1     9    1
    37     1    42    1
    38    11     9    1
    39    11    27    1
    40    11    26    1
    41     9    16    1
    42    16    41    1
    43    16    39    1
    44    16    40    1
@<TRIPOS>MOLECULE
11996452_4_run_2.pdb
 42 44 0 0 0
SMALL
GASTEIGER

@<TRIPOS>ATOM
      1    O      -72.6130  -86.6590   -7.7880 O.3     2  LIG2       -0.3886
      2    C      -69.4380  -88.9490   -6.6690 C.3     2  LIG2       -0.0289
      3    C      -68.4430  -88.1130   -5.8840 C.3     2  LIG2       -0.0284
      4    C      -68.7200  -87.7670   -7.3320 C.3     2  LIG2       -0.0319
      5    C      -70.9740  -88.8510   -6.4840 C.3     2  LIG2       -0.0294
      6    C      -71.7010  -88.9230   -7.8560 C.3     2  LIG2       -0.0090
      7    C      -69.5440  -86.5410   -7.7890 C.3     2  LIG2       -0.0468
      8    C      -71.6290  -89.9210   -5.5620 C.3     2  LIG2       -0.0404
      9    C      -71.8690  -87.5540   -8.6020 C.3     2  LIG2        0.0664
     10    C      -73.0070  -89.6820   -7.5540 C.3     2  LIG2       -0.0471
     11    C      -70.5220  -86.8480   -8.9470 C.3     2  LIG2       -0.0237
     12    C      -68.9020  -87.1890   -4.7330 C.3     2  LIG2       -0.0593
     13    C      -67.0900  -88.7780   -5.5710 C.3     2  LIG2       -0.0593
     14    C      -72.6440  -90.6630   -6.4430 C.3     2  LIG2       -0.0498
     15    C      -70.6660  -90.8790   -4.8300 C.3     2  LIG2       -0.0621
     16    C      -72.6830  -87.7140   -9.9080 C.3     2  LIG2       -0.0358
     17    H      -69.1290  -89.9400   -7.0040 H       2  LIG2        0.0312
     18    H      -67.9060  -87.9710   -8.0290 H       2  LIG2        0.0309
     19    H      -71.2250  -87.8950   -6.0320 H       2  LIG2        0.0310
     20    H      -71.1250  -89.5740   -8.5170 H       2  LIG2        0.0331
     21    H      -70.0830  -86.0660   -6.9730 H       2  LIG2        0.0269
     22    H      -68.8380  -85.7870   -8.1390 H       2  LIG2        0.0269
     23    H      -72.1960  -89.3980   -4.7900 H       2  LIG2        0.0301
     24    H      -73.7890  -89.0010   -7.2170 H       2  LIG2        0.0269
     25    H      -73.3860  -90.2080   -8.4320 H       2  LIG2        0.0269
     26    H      -70.7370  -85.9110   -9.4660 H       2  LIG2        0.0293
     27    H      -69.9880  -87.4530   -9.6820 H       2  LIG2        0.0293
     28    H      -68.1670  -86.4040   -4.5540 H       2  LIG2        0.0235
     29    H      -69.0090  -87.7560   -3.8070 H       2  LIG2        0.0235
     30    H      -69.8530  -86.6910   -4.9030 H       2  LIG2        0.0235
     31    H      -66.3090  -88.0310   -5.4290 H       2  LIG2        0.0235
     32    H      -66.7630  -89.4410   -6.3740 H       2  LIG2        0.0235
     33    H      -67.1510  -89.3770   -4.6630 H       2  LIG2        0.0235
     34    H      -72.2040  -91.5670   -6.8690 H       2  LIG2        0.0268
     35    H      -73.5280  -90.9670   -5.8800 H       2  LIG2        0.0268
     36    H      -70.0950  -91.4940   -5.5250 H       2  LIG2        0.0233
     37    H      -71.2140  -91.5540   -4.1740 H       2  LIG2        0.0233
     38    H      -69.9590  -90.3260   -4.2090 H       2  LIG2        0.0233
     39    H      -72.1920  -88.4050  -10.5950 H       2  LIG2        0.0257
     40    H      -72.8010  -86.7640  -10.4320 H       2  LIG2        0.0257
     41    H      -73.6860  -88.0980   -9.7220 H       2  LIG2        0.0257
     42    H      -72.4750  -85.7670   -8.1150 H       2  LIG2        0.2102
@<TRIPOS>BOND
     1    39    16    1
     2    40    16    1
     3    16    41    1
     4    16     9    1
     5    27    11    1
     6    26    11    1
     7    11     9    1
     8    11     7    1
     9     9     6    1
    10     9     1    1
    11    20     6    1
    12    25    10    1
    13    22     7    1
    14    42     1    1
    15    18     4    1
    16     6    10    1
    17     6     5    1
    18     7     4    1
    19     7    21    1
    20    10    24    1
    21    10    14    1
    22     4     2    1
    23     4     3    1
    24    17     2    1
    25    34    14    1
    26     2     5    1
    27     2     3    1
    28     5    19    1
    29     5     8    1
    30    14    35    1
    31    14     8    1
    32    32    13    1
    33     3    13    1
    34     3    12    1
    35    13    31    1
    36    13    33    1
    37     8    15    1
    38     8    23    1
    39    36    15    1
    40    30    12    1
    41    15    38    1
    42    15    37    1
    43    12    28    1
    44    12    29    1
