@<TRIPOS>MOLECULE
11996452_7_run_4.pdb
 42 44 0 0 0
SMALL
GASTEIGER

@<TRIPOS>ATOM
      1    O      -70.7800  -86.1590   -7.1410 O.3     2  LIG2       -0.3886
      2    C      -69.0120  -88.2870   -8.1800 C.3     2  LIG2       -0.0289
      3    C      -68.6870  -88.9530   -9.5110 C.3     2  LIG2       -0.0284
      4    C      -69.8760  -88.0270   -9.4210 C.3     2  LIG2       -0.0319
      5    C      -69.6400  -89.0470   -6.9740 C.3     2  LIG2       -0.0294
      6    C      -70.9230  -88.4380   -6.3050 C.3     2  LIG2       -0.0090
      7    C      -71.3440  -88.4840   -9.3580 C.3     2  LIG2       -0.0468
      8    C      -68.6090  -89.2650   -5.8380 C.3     2  LIG2       -0.0404
      9    C      -71.6750  -87.2520   -7.0120 C.3     2  LIG2        0.0664
     10    C      -70.5160  -88.1820   -4.8410 C.3     2  LIG2       -0.0471
     11    C      -72.2180  -87.6060   -8.4360 C.3     2  LIG2       -0.0237
     12    C      -67.4450  -88.4220  -10.2510 C.3     2  LIG2       -0.0593
     13    C      -68.8800  -90.4700   -9.7390 C.3     2  LIG2       -0.0593
     14    C      -69.4160  -89.1960   -4.5410 C.3     2  LIG2       -0.0498
     15    C      -67.7890  -90.5580   -5.9930 C.3     2  LIG2       -0.0621
     16    C      -72.8580  -86.7280   -6.1610 C.3     2  LIG2       -0.0358
     17    H      -68.3900  -87.4510   -7.8570 H       2  LIG2        0.0312
     18    H      -69.7810  -87.0680   -9.9290 H       2  LIG2        0.0309
     19    H      -69.9530  -90.0340   -7.3080 H       2  LIG2        0.0310
     20    H      -71.6590  -89.2430   -6.2580 H       2  LIG2        0.0331
     21    H      -71.7620  -88.4710  -10.3640 H       2  LIG2        0.0269
     22    H      -71.4300  -89.5170   -9.0260 H       2  LIG2        0.0269
     23    H      -67.9090  -88.4260   -5.8140 H       2  LIG2        0.0301
     24    H      -70.1370  -87.1670   -4.7130 H       2  LIG2        0.0269
     25    H      -71.3550  -88.3030   -4.1540 H       2  LIG2        0.0269
     26    H      -72.4800  -86.6880   -8.9660 H       2  LIG2        0.0293
     27    H      -73.1620  -88.1410   -8.3230 H       2  LIG2        0.0293
     28    H      -67.5260  -88.5910  -11.3250 H       2  LIG2        0.0235
     29    H      -66.5390  -88.9180   -9.9010 H       2  LIG2        0.0235
     30    H      -67.3040  -87.3500  -10.1020 H       2  LIG2        0.0235
     31    H      -68.9600  -90.6880  -10.8040 H       2  LIG2        0.0235
     32    H      -69.7670  -90.8890   -9.2720 H       2  LIG2        0.0235
     33    H      -68.0260  -91.0280   -9.3530 H       2  LIG2        0.0235
     34    H      -69.8470  -90.1680   -4.2960 H       2  LIG2        0.0268
     35    H      -68.8050  -88.8820   -3.6930 H       2  LIG2        0.0268
     36    H      -68.4300  -91.4420   -6.0040 H       2  LIG2        0.0233
     37    H      -67.0810  -90.6750   -5.1720 H       2  LIG2        0.0233
     38    H      -67.2180  -90.5520   -6.9220 H       2  LIG2        0.0233
     39    H      -73.5830  -87.5180   -5.9620 H       2  LIG2        0.0257
     40    H      -73.3890  -85.9180   -6.6640 H       2  LIG2        0.0257
     41    H      -72.5300  -86.3380   -5.1970 H       2  LIG2        0.0257
     42    H      -71.2530  -85.4250   -7.5380 H       2  LIG2        0.2102
@<TRIPOS>BOND
     1    28    12    1
     2    31    13    1
     3    21     7    1
     4    12    30    1
     5    12    29    1
     6    12     3    1
     7    18     4    1
     8    13     3    1
     9    13    33    1
    10    13    32    1
    11     3     4    1
    12     3     2    1
    13     4     7    1
    14     4     2    1
    15     7    22    1
    16     7    11    1
    17    26    11    1
    18    11    27    1
    19    11     9    1
    20     2    17    1
    21     2     5    1
    22    42     1    1
    23    19     5    1
    24     1     9    1
    25     9     6    1
    26     9    16    1
    27     5     6    1
    28     5     8    1
    29    38    15    1
    30    40    16    1
    31     6    20    1
    32     6    10    1
    33    16    39    1
    34    16    41    1
    35    36    15    1
    36    15     8    1
    37    15    37    1
    38     8    23    1
    39     8    14    1
    40    10    24    1
    41    10    14    1
    42    10    25    1
    43    14    34    1
    44    14    35    1
@<TRIPOS>MOLECULE
11996452_7_run_9.pdb
 42 44 0 0 0
SMALL
GASTEIGER

@<TRIPOS>ATOM
      1    O      -58.2890  -74.5610   -6.3600 O.3     2  LIG2       -0.3886
      2    C      -59.7090  -72.6860   -8.1490 C.3     2  LIG2       -0.0289
      3    C      -59.3860  -71.7280   -9.2880 C.3     2  LIG2       -0.0284
      4    C      -58.2560  -72.3310   -8.4890 C.3     2  LIG2       -0.0319
      5    C      -60.2950  -72.2240   -6.7810 C.3     2  LIG2       -0.0294
      6    C      -59.5720  -72.6970   -5.4710 C.3     2  LIG2       -0.0090
      7    C      -57.4480  -71.5900   -7.4100 C.3     2  LIG2       -0.0468
      8    C      -61.7850  -72.6230   -6.6360 C.3     2  LIG2       -0.0404
      9    C      -58.1640  -73.3880   -5.5710 C.3     2  LIG2        0.0664
     10    C      -60.6440  -73.4910   -4.6990 C.3     2  LIG2       -0.0471
     11    C      -57.0600  -72.4860   -6.2130 C.3     2  LIG2       -0.0237
     12    C      -59.5990  -72.2700  -10.7140 C.3     2  LIG2       -0.0593
     13    C      -59.6970  -70.2150   -9.2030 C.3     2  LIG2       -0.0593
     14    C      -61.9820  -72.9090   -5.1470 C.3     2  LIG2       -0.0498
     15    C      -62.7600  -71.5740   -7.2020 C.3     2  LIG2       -0.0621
     16    C      -57.6540  -73.8650   -4.1890 C.3     2  LIG2       -0.0358
     17    H      -60.0170  -73.7020   -8.4020 H       2  LIG2        0.0312
     18    H      -57.6460  -73.0750   -9.0010 H       2  LIG2        0.0309
     19    H      -60.2550  -71.1370   -6.7340 H       2  LIG2        0.0310
     20    H      -59.3970  -71.8000   -4.8730 H       2  LIG2        0.0331
     21    H      -56.5420  -71.1860   -7.8620 H       2  LIG2        0.0269
     22    H      -57.9860  -70.7250   -7.0270 H       2  LIG2        0.0269
     23    H      -61.9650  -73.5640   -7.1590 H       2  LIG2        0.0301
     24    H      -60.5950  -74.5530   -4.9440 H       2  LIG2        0.0269
     25    H      -60.5220  -73.4020   -3.6180 H       2  LIG2        0.0269
     26    H      -56.2030  -73.1010   -6.4960 H       2  LIG2        0.0293
     27    H      -56.6760  -71.8100   -5.4480 H       2  LIG2        0.0293
     28    H      -58.9560  -71.7560  -11.4290 H       2  LIG2        0.0235
     29    H      -60.6320  -72.1360  -11.0340 H       2  LIG2        0.0235
     30    H      -59.3740  -73.3360  -10.7860 H       2  LIG2        0.0235
     31    H      -59.0800  -69.6590   -9.9090 H       2  LIG2        0.0235
     32    H      -59.5230  -69.7720   -8.2260 H       2  LIG2        0.0235
     33    H      -60.7410  -70.0240   -9.4560 H       2  LIG2        0.0235
     34    H      -62.2040  -71.9930   -4.5970 H       2  LIG2        0.0268
     35    H      -62.8000  -73.6080   -4.9660 H       2  LIG2        0.0268
     36    H      -62.6460  -70.6100   -6.7040 H       2  LIG2        0.0233
     37    H      -63.7950  -71.8920   -7.0740 H       2  LIG2        0.0233
     38    H      -62.5920  -71.4190   -8.2680 H       2  LIG2        0.0233
     39    H      -57.5740  -73.0330   -3.4890 H       2  LIG2        0.0257
     40    H      -56.6680  -74.3280   -4.2610 H       2  LIG2        0.0257
     41    H      -58.3160  -74.6060   -3.7390 H       2  LIG2        0.0257
     42    H      -57.4140  -74.9320   -6.4940 H       2  LIG2        0.2102
@<TRIPOS>BOND
     1    28    12    1
     2    29    12    1
     3    30    12    1
     4    12     3    1
     5    31    13    1
     6    33    13    1
     7     3    13    1
     8     3     4    1
     9     3     2    1
    10    13    32    1
    11    18     4    1
    12     4     2    1
    13     4     7    1
    14    17     2    1
    15    38    15    1
    16     2     5    1
    17    21     7    1
    18     7    22    1
    19     7    11    1
    20    15    37    1
    21    15    36    1
    22    15     8    1
    23    23     8    1
    24     5    19    1
    25     5     8    1
    26     5     6    1
    27     8    14    1
    28    26    11    1
    29    42     1    1
    30     1     9    1
    31    11     9    1
    32    11    27    1
    33     9     6    1
    34     9    16    1
    35     6    20    1
    36     6    10    1
    37    14    35    1
    38    14    10    1
    39    14    34    1
    40    24    10    1
    41    10    25    1
    42    40    16    1
    43    16    41    1
    44    16    39    1
@<TRIPOS>MOLECULE
11996452_7_run_15.pdb
 42 44 0 0 0
SMALL
GASTEIGER

@<TRIPOS>ATOM
      1    O      -72.4380  -86.6590   -7.8980 O.3     2  LIG2       -0.3886
      2    C      -71.3260  -88.6640   -9.7620 C.3     2  LIG2       -0.0289
      3    C      -71.7430  -89.9800  -10.4070 C.3     2  LIG2       -0.0284
      4    C      -72.5850  -89.4040   -9.2930 C.3     2  LIG2       -0.0319
      5    C      -70.1220  -88.5360   -8.7820 C.3     2  LIG2       -0.0294
      6    C      -70.3680  -87.8330   -7.4000 C.3     2  LIG2       -0.0090
      7    C      -72.5950  -89.9160   -7.8430 C.3     2  LIG2       -0.0468
      8    C      -68.9240  -87.8090   -9.4430 C.3     2  LIG2       -0.0404
      9    C      -71.8380  -87.5200   -6.9420 C.3     2  LIG2        0.0664
     10    C      -69.4040  -86.6300   -7.3970 C.3     2  LIG2       -0.0471
     11    C      -72.7410  -88.7890   -6.7970 C.3     2  LIG2       -0.0237
     12    C      -72.3160  -89.8860  -11.8340 C.3     2  LIG2       -0.0593
     13    C      -70.9430  -91.2870  -10.2000 C.3     2  LIG2       -0.0593
     14    C      -68.2510  -87.0300   -8.3120 C.3     2  LIG2       -0.0498
     15    C      -67.9730  -88.7550  -10.1990 C.3     2  LIG2       -0.0621
     16    C      -71.8750  -86.7470   -5.6010 C.3     2  LIG2       -0.0358
     17    H      -71.5020  -87.7400  -10.3160 H       2  LIG2        0.0312
     18    H      -73.5590  -89.0060   -9.5800 H       2  LIG2        0.0309
     19    H      -69.7780  -89.5350   -8.5190 H       2  LIG2        0.0310
     20    H      -69.9780  -88.5100   -6.6350 H       2  LIG2        0.0331
     21    H      -73.4160  -90.6230   -7.7230 H       2  LIG2        0.0269
     22    H      -71.6950  -90.4820   -7.6100 H       2  LIG2        0.0269
     23    H      -69.2930  -87.0670  -10.1540 H       2  LIG2        0.0301
     24    H      -69.8970  -85.7350   -7.7820 H       2  LIG2        0.0269
     25    H      -69.0430  -86.3950   -6.3950 H       2  LIG2        0.0269
     26    H      -73.7890  -88.4880   -6.7450 H       2  LIG2        0.0293
     27    H      -72.5360  -89.2510   -5.8310 H       2  LIG2        0.0293
     28    H      -72.9820  -90.7230  -12.0440 H       2  LIG2        0.0235
     29    H      -71.5180  -89.8960  -12.5770 H       2  LIG2        0.0235
     30    H      -72.8890  -88.9710  -11.9870 H       2  LIG2        0.0235
     31    H      -71.5700  -92.1550  -10.4070 H       2  LIG2        0.0235
     32    H      -70.5520  -91.4230   -9.1960 H       2  LIG2        0.0235
     33    H      -70.0910  -91.3270  -10.8800 H       2  LIG2        0.0235
     34    H      -67.5360  -87.6570   -7.7750 H       2  LIG2        0.0268
     35    H      -67.7110  -86.1560   -8.6790 H       2  LIG2        0.0268
     36    H      -67.5500  -89.5130   -9.5370 H       2  LIG2        0.0233
     37    H      -67.1440  -88.2040  -10.6430 H       2  LIG2        0.0233
     38    H      -68.4940  -89.2720  -11.0050 H       2  LIG2        0.0233
     39    H      -71.3850  -87.3100   -4.8060 H       2  LIG2        0.0257
     40    H      -72.8980  -86.5470   -5.2780 H       2  LIG2        0.0257
     41    H      -71.3730  -85.7800   -5.6690 H       2  LIG2        0.0257
     42    H      -72.0390  -85.7900   -7.8150 H       2  LIG2        0.2102
@<TRIPOS>BOND
     1    29    12    1
     2    28    12    1
     3    30    12    1
     4    12     3    1
     5    38    15    1
     6    33    13    1
     7    37    15    1
     8     3    13    1
     9     3     2    1
    10     3     4    1
    11    31    13    1
    12    17     2    1
    13    13    32    1
    14    15    36    1
    15    15     8    1
    16    23     8    1
    17     2     4    1
    18     2     5    1
    19    18     4    1
    20     8     5    1
    21     8    14    1
    22     4     7    1
    23     5    19    1
    24     5     6    1
    25    35    14    1
    26    14    34    1
    27    14    10    1
    28     1    42    1
    29     1     9    1
    30     7    21    1
    31     7    22    1
    32     7    11    1
    33    24    10    1
    34     6    10    1
    35     6     9    1
    36     6    20    1
    37    10    25    1
    38     9    11    1
    39     9    16    1
    40    11    26    1
    41    11    27    1
    42    41    16    1
    43    16    40    1
    44    16    39    1
@<TRIPOS>MOLECULE
11996452_7_run_15.pdb
 42 44 0 0 0
SMALL
GASTEIGER

@<TRIPOS>ATOM
      1    O      -69.2510  -87.9820  -10.9290 O.3     2  LIG2       -0.3886
      2    C      -69.3080  -88.7490   -8.0750 C.3     2  LIG2       -0.0289
      3    C      -68.3300  -88.9360   -6.9230 C.3     2  LIG2       -0.0284
      4    C      -67.7950  -88.7520   -8.3230 C.3     2  LIG2       -0.0319
      5    C      -70.1670  -89.9080   -8.6660 C.3     2  LIG2       -0.0294
      6    C      -70.1320  -90.1340  -10.2180 C.3     2  LIG2       -0.0090
      7    C      -67.2330  -89.8780   -9.2060 C.3     2  LIG2       -0.0468
      8    C      -71.6590  -89.7700   -8.2700 C.3     2  LIG2       -0.0404
      9    C      -69.0610  -89.3800  -11.0870 C.3     2  LIG2        0.0664
     10    C      -71.5950  -89.9560  -10.6720 C.3     2  LIG2       -0.0471
     11    C      -67.5830  -89.7160  -10.7010 C.3     2  LIG2       -0.0237
     12    C      -68.1820  -87.7460   -5.9570 C.3     2  LIG2       -0.0593
     13    C      -68.1750  -90.2880   -6.1880 C.3     2  LIG2       -0.0593
     14    C      -72.4440  -90.3240   -9.4590 C.3     2  LIG2       -0.0498
     15    C      -72.0030  -90.4410   -6.9290 C.3     2  LIG2       -0.0621
     16    C      -69.2410  -89.6590  -12.5990 C.3     2  LIG2       -0.0358
     17    H      -69.8010  -87.7810   -8.1810 H       2  LIG2        0.0312
     18    H      -67.3000  -87.8020   -8.5290 H       2  LIG2        0.0309
     19    H      -69.8170  -90.8500   -8.2470 H       2  LIG2        0.0310
     20    H      -69.9150  -91.1940  -10.3710 H       2  LIG2        0.0331
     21    H      -66.1490  -89.9090   -9.0940 H       2  LIG2        0.0269
     22    H      -67.5800  -90.8570   -8.8800 H       2  LIG2        0.0269
     23    H      -71.9200  -88.7120   -8.1920 H       2  LIG2        0.0301
     24    H      -71.7880  -88.9230  -10.9670 H       2  LIG2        0.0269
     25    H      -71.8400  -90.5890  -11.5260 H       2  LIG2        0.0269
     26    H      -66.9130  -88.9750  -11.1430 H       2  LIG2        0.0293
     27    H      -67.3070  -90.6580  -11.1760 H       2  LIG2        0.0293
     28    H      -67.2050  -87.7540   -5.4730 H       2  LIG2        0.0235
     29    H      -68.9430  -87.7780   -5.1770 H       2  LIG2        0.0235
     30    H      -68.2820  -86.7870   -6.4680 H       2  LIG2        0.0235
     31    H      -67.2110  -90.3380   -5.6810 H       2  LIG2        0.0235
     32    H      -68.2290  -91.1620   -6.8320 H       2  LIG2        0.0235
     33    H      -68.9510  -90.4040   -5.4310 H       2  LIG2        0.0235
     34    H      -72.5550  -91.4080   -9.3850 H       2  LIG2        0.0268
     35    H      -73.4450  -89.8950   -9.5290 H       2  LIG2        0.0268
     36    H      -71.7850  -91.5100   -6.9470 H       2  LIG2        0.0233
     37    H      -73.0610  -90.3240   -6.6920 H       2  LIG2        0.0233
     38    H      -71.4330  -90.0000   -6.1110 H       2  LIG2        0.0233
     39    H      -69.1630  -90.7240  -12.8160 H       2  LIG2        0.0257
     40    H      -68.4840  -89.1480  -13.1960 H       2  LIG2        0.0257
     41    H      -70.2110  -89.3230  -12.9670 H       2  LIG2        0.0257
     42    H      -70.0390  -87.7270  -11.4140 H       2  LIG2        0.2102
@<TRIPOS>BOND
     1    40    16    1
     2    41    16    1
     3    39    16    1
     4    16     9    1
     5    25    10    1
     6    42     1    1
     7    27    11    1
     8    26    11    1
     9     9     1    1
    10     9    11    1
    11     9     6    1
    12    24    10    1
    13    11     7    1
    14    10     6    1
    15    10    14    1
    16    20     6    1
    17     6     5    1
    18    35    14    1
    19    14    34    1
    20    14     8    1
    21     7    21    1
    22     7    22    1
    23     7     4    1
    24     5     8    1
    25     5    19    1
    26     5     2    1
    27    18     4    1
    28     4     2    1
    29     4     3    1
    30     8    23    1
    31     8    15    1
    32    17     2    1
    33     2     3    1
    34    36    15    1
    35    15    37    1
    36    15    38    1
    37     3    13    1
    38     3    12    1
    39    32    13    1
    40    30    12    1
    41    13    31    1
    42    13    33    1
    43    12    28    1
    44    12    29    1
@<TRIPOS>MOLECULE
11996452_7_run_9.pdb
 42 44 0 0 0
SMALL
GASTEIGER

@<TRIPOS>ATOM
      1    O      -72.0540  -86.6590   -7.3850 O.3     2  LIG2       -0.3886
      2    C      -70.0340  -88.2240   -5.9010 C.3     2  LIG2       -0.0289
      3    C      -68.5470  -88.1570   -5.5790 C.3     2  LIG2       -0.0284
      4    C      -69.1230  -87.2140   -6.6090 C.3     2  LIG2       -0.0319
      5    C      -70.6780  -89.3710   -6.7370 C.3     2  LIG2       -0.0294
      6    C      -71.5830  -88.9740   -7.9570 C.3     2  LIG2       -0.0090
      7    C      -68.9600  -87.3680   -8.1310 C.3     2  LIG2       -0.0468
      8    C      -71.5190  -90.3210   -5.8490 C.3     2  LIG2       -0.0404
      9    C      -71.6080  -87.4820   -8.4510 C.3     2  LIG2        0.0664
     10    C      -72.9610  -89.5860   -7.6340 C.3     2  LIG2       -0.0471
     11    C      -70.2160  -86.9500   -8.9260 C.3     2  LIG2       -0.0237
     12    C      -68.1740  -87.5520   -4.2130 C.3     2  LIG2       -0.0593
     13    C      -67.5650  -89.2770   -5.9930 C.3     2  LIG2       -0.0593
     14    C      -72.6730  -90.7870   -6.7370 C.3     2  LIG2       -0.0498
     15    C      -70.7010  -91.4730   -5.2370 C.3     2  LIG2       -0.0621
     16    C      -72.6240  -87.2690   -9.5990 C.3     2  LIG2       -0.0358
     17    H      -70.7370  -87.8000   -5.1810 H       2  LIG2        0.0312
     18    H      -69.1870  -86.1650   -6.3210 H       2  LIG2        0.0309
     19    H      -69.8820  -89.9710   -7.1760 H       2  LIG2        0.0310
     20    H      -71.2140  -89.5430   -8.8140 H       2  LIG2        0.0331
     21    H      -68.1130  -86.7650   -8.4590 H       2  LIG2        0.0269
     22    H      -68.7060  -88.3890   -8.4080 H       2  LIG2        0.0269
     23    H      -71.9660  -89.7560   -5.0290 H       2  LIG2        0.0301
     24    H      -73.5930  -88.8680   -7.1100 H       2  LIG2        0.0269
     25    H      -73.4960  -89.8920   -8.5340 H       2  LIG2        0.0269
     26    H      -70.2450  -85.8610   -8.9940 H       2  LIG2        0.0293
     27    H      -70.0470  -87.2880   -9.9490 H       2  LIG2        0.0293
     28    H      -67.1700  -87.1270   -4.2330 H       2  LIG2        0.0235
     29    H      -68.2010  -88.3090   -3.4290 H       2  LIG2        0.0235
     30    H      -68.8570  -86.7540   -3.9150 H       2  LIG2        0.0235
     31    H      -66.5430  -88.8980   -6.0200 H       2  LIG2        0.0235
     32    H      -67.7580  -89.7100   -6.9700 H       2  LIG2        0.0235
     33    H      -67.5920  -90.0960   -5.2730 H       2  LIG2        0.0235
     34    H      -72.3830  -91.6510   -7.3370 H       2  LIG2        0.0268
     35    H      -73.5520  -91.0690   -6.1560 H       2  LIG2        0.0268
     36    H      -70.2420  -92.0940   -6.0080 H       2  LIG2        0.0233
     37    H      -71.3310  -92.1190   -4.6250 H       2  LIG2        0.0233
     38    H      -69.9030  -91.0920   -4.5990 H       2  LIG2        0.0233
     39    H      -72.3930  -87.9050  -10.4540 H       2  LIG2        0.0257
     40    H      -72.6240  -86.2360   -9.9510 H       2  LIG2        0.0257
     41    H      -73.6450  -87.4970   -9.2920 H       2  LIG2        0.0257
     42    H      -72.0390  -85.7460   -7.6800 H       2  LIG2        0.2102
@<TRIPOS>BOND
     1    39    16    1
     2    40    16    1
     3    27    11    1
     4    16    41    1
     5    16     9    1
     6    26    11    1
     7    11     9    1
     8    11     7    1
     9    20     6    1
    10    25    10    1
    11    21     7    1
    12     9     6    1
    13     9     1    1
    14    22     7    1
    15     7     4    1
    16     6    10    1
    17     6     5    1
    18    42     1    1
    19    10    24    1
    20    10    14    1
    21    34    14    1
    22    19     5    1
    23    32    13    1
    24    14    35    1
    25    14     8    1
    26     5     2    1
    27     5     8    1
    28     4    18    1
    29     4     2    1
    30     4     3    1
    31    31    13    1
    32    36    15    1
    33    13     3    1
    34    13    33    1
    35     2     3    1
    36     2    17    1
    37     8    15    1
    38     8    23    1
    39     3    12    1
    40    15    37    1
    41    15    38    1
    42    28    12    1
    43    12    30    1
    44    12    29    1
@<TRIPOS>MOLECULE
11996452_7_run_18.pdb
 42 44 0 0 0
SMALL
GASTEIGER

@<TRIPOS>ATOM
      1    O      -61.7080  -69.7700   -7.5810 O.3     2  LIG2       -0.3886
      2    C      -59.3650  -71.2790   -8.5650 C.3     2  LIG2       -0.0289
      3    C      -58.6640  -71.5650   -9.8870 C.3     2  LIG2       -0.0284
      4    C      -60.0190  -70.8990   -9.9000 C.3     2  LIG2       -0.0319
      5    C      -60.0290  -72.3850   -7.6920 C.3     2  LIG2       -0.0294
      6    C      -61.5140  -72.1680   -7.2310 C.3     2  LIG2       -0.0090
      7    C      -61.3410  -71.6010  -10.2550 C.3     2  LIG2       -0.0468
      8    C      -59.2040  -72.6730   -6.4120 C.3     2  LIG2       -0.0404
      9    C      -62.3580  -71.0010   -7.8600 C.3     2  LIG2        0.0664
     10    C      -61.4510  -72.1810   -5.6910 C.3     2  LIG2       -0.0471
     11    C      -62.5380  -71.1140   -9.4100 C.3     2  LIG2       -0.0237
     12    C      -57.4480  -70.6780  -10.2170 C.3     2  LIG2       -0.0593
     13    C      -58.4830  -73.0020  -10.4270 C.3     2  LIG2       -0.0593
     14    C      -60.2340  -73.0340   -5.3410 C.3     2  LIG2       -0.0498
     15    C      -58.1140  -73.7400   -6.6120 C.3     2  LIG2       -0.0621
     16    C      -63.7620  -70.8890   -7.2180 C.3     2  LIG2       -0.0358
     17    H      -59.0070  -70.4430   -7.9620 H       2  LIG2        0.0312
     18    H      -60.0380  -69.8480  -10.1890 H       2  LIG2        0.0309
     19    H      -60.0560  -73.3110   -8.2630 H       2  LIG2        0.0310
     20    H      -62.0570  -73.0770   -7.5000 H       2  LIG2        0.0331
     21    H      -61.5580  -71.4350  -11.3100 H       2  LIG2        0.0269
     22    H      -61.2650  -72.6810  -10.1460 H       2  LIG2        0.0269
     23    H      -58.7170  -71.7550   -6.0770 H       2  LIG2        0.0301
     24    H      -61.3270  -71.1710   -5.2970 H       2  LIG2        0.0269
     25    H      -62.3570  -72.5940   -5.2460 H       2  LIG2        0.0269
     26    H      -62.8870  -70.1590   -9.8080 H       2  LIG2        0.0293
     27    H      -63.3500  -71.8130   -9.6140 H       2  LIG2        0.0293
     28    H      -57.2910  -70.6140  -11.2940 H       2  LIG2        0.0235
     29    H      -56.5390  -71.0780   -9.7680 H       2  LIG2        0.0235
     30    H      -57.5700  -69.6590   -9.8470 H       2  LIG2        0.0235
     31    H      -58.3150  -72.9870  -11.5040 H       2  LIG2        0.0235
     32    H      -59.3310  -73.6590  -10.2570 H       2  LIG2        0.0235
     33    H      -57.6160  -73.4790   -9.9660 H       2  LIG2        0.0235
     34    H      -60.4860  -74.0950   -5.3820 H       2  LIG2        0.0268
     35    H      -59.8730  -72.8190   -4.3340 H       2  LIG2        0.0268
     36    H      -58.5380  -74.6940   -6.9290 H       2  LIG2        0.0233
     37    H      -57.5620  -73.9150   -5.6880 H       2  LIG2        0.0233
     38    H      -57.3950  -73.4290   -7.3710 H       2  LIG2        0.0233
     39    H      -64.3250  -71.8150   -7.3350 H       2  LIG2        0.0257
     40    H      -64.3500  -70.0890   -7.6700 H       2  LIG2        0.0257
     41    H      -63.7090  -70.6750   -6.1490 H       2  LIG2        0.0257
     42    H      -61.6670  -69.6590   -6.6290 H       2  LIG2        0.2102
@<TRIPOS>BOND
     1    31    13    1
     2    21     7    1
     3    28    12    1
     4    13    32    1
     5    13    33    1
     6    13     3    1
     7     7    22    1
     8     7     4    1
     9     7    11    1
    10    12     3    1
    11    12    30    1
    12    12    29    1
    13    18     4    1
    14     4     3    1
    15     4     2    1
    16     3     2    1
    17    26    11    1
    18    27    11    1
    19    11     9    1
    20     2    17    1
    21     2     5    1
    22    19     5    1
    23     9     1    1
    24     9     6    1
    25     9    16    1
    26     5     6    1
    27     5     8    1
    28    40    16    1
    29     1    42    1
    30    20     6    1
    31    38    15    1
    32    39    16    1
    33     6    10    1
    34    16    41    1
    35    36    15    1
    36    15     8    1
    37    15    37    1
    38     8    23    1
    39     8    14    1
    40    10    14    1
    41    10    24    1
    42    10    25    1
    43    34    14    1
    44    14    35    1
@<TRIPOS>MOLECULE
11996452_7_run_14.pdb
 42 44 0 0 0
SMALL
GASTEIGER

@<TRIPOS>ATOM
      1    O      -71.9630  -88.6590  -10.9290 O.3     2  LIG2       -0.3886
      2    C      -69.7450  -88.7960   -8.9810 C.3     2  LIG2       -0.0289
      3    C      -68.2390  -88.5730   -8.9470 C.3     2  LIG2       -0.0284
      4    C      -68.9500  -88.6090  -10.2790 C.3     2  LIG2       -0.0319
      5    C      -70.4120  -90.1760   -8.7020 C.3     2  LIG2       -0.0294
      6    C      -71.4450  -90.7210   -9.7510 C.3     2  LIG2       -0.0090
      7    C      -68.9230  -89.7940  -11.2590 C.3     2  LIG2       -0.0468
      8    C      -71.1230  -90.1980   -7.3250 C.3     2  LIG2       -0.0404
      9    C      -71.5820  -90.0090  -11.1450 C.3     2  LIG2        0.0664
     10    C      -72.7580  -90.8810   -8.9590 C.3     2  LIG2       -0.0471
     11    C      -70.2660  -90.0130  -11.9900 C.3     2  LIG2       -0.0237
     12    C      -67.7660  -87.1960   -8.4460 C.3     2  LIG2       -0.0593
     13    C      -67.2510  -89.6930   -8.5470 C.3     2  LIG2       -0.0593
     14    C      -72.3340  -91.1130   -7.5110 C.3     2  LIG2       -0.0498
     15    C      -70.2020  -90.6130   -6.1650 C.3     2  LIG2       -0.0621
     16    C      -72.7100  -90.6300  -12.0050 C.3     2  LIG2       -0.0358
     17    H      -70.3960  -87.9650   -8.7030 H       2  LIG2        0.0312
     18    H      -69.0340  -87.6590  -10.8070 H       2  LIG2        0.0309
     19    H      -69.6360  -90.9380   -8.6660 H       2  LIG2        0.0310
     20    H      -71.1330  -91.7410   -9.9910 H       2  LIG2        0.0331
     21    H      -68.1390  -89.6260  -11.9970 H       2  LIG2        0.0269
     22    H      -68.6520  -90.7220  -10.7610 H       2  LIG2        0.0269
     23    H      -71.5170  -89.2040   -7.1020 H       2  LIG2        0.0301
     24    H      -73.3700  -89.9810   -9.0320 H       2  LIG2        0.0269
     25    H      -73.3610  -91.7130   -9.3260 H       2  LIG2        0.0269
     26    H      -70.3500  -89.2860  -12.8010 H       2  LIG2        0.0293
     27    H      -70.1780  -90.9790  -12.4900 H       2  LIG2        0.0293
     28    H      -66.7890  -86.9430   -8.8570 H       2  LIG2        0.0235
     29    H      -67.6870  -87.1810   -7.3580 H       2  LIG2        0.0235
     30    H      -68.4530  -86.3970   -8.7300 H       2  LIG2        0.0235
     31    H      -66.2540  -89.4790   -8.9330 H       2  LIG2        0.0235
     32    H      -67.5150  -90.6820   -8.9130 H       2  LIG2        0.0235
     33    H      -67.1740  -89.7680   -7.4610 H       2  LIG2        0.0235
     34    H      -72.0630  -92.1590   -7.3550 H       2  LIG2        0.0268
     35    H      -73.1420  -90.8740   -6.8170 H       2  LIG2        0.0268
     36    H      -69.7890  -91.6120   -6.3160 H       2  LIG2        0.0233
     37    H      -70.7430  -90.6190   -5.2180 H       2  LIG2        0.0233
     38    H      -69.3660  -89.9210   -6.0610 H       2  LIG2        0.0233
     39    H      -72.5320  -91.6910  -12.1830 H       2  LIG2        0.0257
     40    H      -72.7890  -90.1440  -12.9790 H       2  LIG2        0.0257
     41    H      -73.6870  -90.5410  -11.5280 H       2  LIG2        0.0257
     42    H      -71.6190  -88.1280  -11.6500 H       2  LIG2        0.2102
@<TRIPOS>BOND
     1    40    16    1
     2    26    11    1
     3    27    11    1
     4    39    16    1
     5    16    41    1
     6    16     9    1
     7    21     7    1
     8    11     7    1
     9    11     9    1
    10    42     1    1
    11     7    22    1
    12     7     4    1
    13     9     1    1
    14     9     6    1
    15    18     4    1
    16     4     2    1
    17     4     3    1
    18    20     6    1
    19     6    10    1
    20     6     5    1
    21    25    10    1
    22    24    10    1
    23     2     3    1
    24     2    17    1
    25     2     5    1
    26    10    14    1
    27     3    13    1
    28     3    12    1
    29    31    13    1
    30    32    13    1
    31    28    12    1
    32    30    12    1
    33     5    19    1
    34     5     8    1
    35    13    33    1
    36    12    29    1
    37    14    34    1
    38    14     8    1
    39    14    35    1
    40     8    23    1
    41     8    15    1
    42    36    15    1
    43    15    38    1
    44    15    37    1
@<TRIPOS>MOLECULE
11996452_7_run_24.pdb
 42 44 0 0 0
SMALL
GASTEIGER

@<TRIPOS>ATOM
      1    O      -69.4230  -88.6980   -6.5880 O.3     2  LIG2       -0.3886
      2    C      -69.3590  -89.8170   -9.3230 C.3     2  LIG2       -0.0289
      3    C      -68.3430  -90.0790  -10.4270 C.3     2  LIG2       -0.0284
      4    C      -67.9400  -89.2420   -9.2360 C.3     2  LIG2       -0.0319
      5    C      -70.5590  -88.8360   -9.4790 C.3     2  LIG2       -0.0294
      6    C      -70.7630  -87.7380   -8.3760 C.3     2  LIG2       -0.0090
      7    C      -67.8060  -87.7100   -9.2430 C.3     2  LIG2       -0.0468
      8    C      -71.9040  -89.5940   -9.6050 C.3     2  LIG2       -0.0404
      9    C      -69.6340  -87.4940   -7.3090 C.3     2  LIG2        0.0664
     10    C      -72.1650  -88.0180   -7.8010 C.3     2  LIG2       -0.0471
     11    C      -68.2670  -87.0500   -7.9250 C.3     2  LIG2       -0.0237
     12    C      -67.7720  -91.5080  -10.5000 C.3     2  LIG2       -0.0593
     13    C      -68.4740  -89.4470  -11.8320 C.3     2  LIG2       -0.0593
     14    C      -72.9390  -88.6950   -8.9280 C.3     2  LIG2       -0.0498
     15    C      -72.2610  -89.9750  -11.0530 C.3     2  LIG2       -0.0621
     16    C      -70.0530  -86.4410   -6.2540 C.3     2  LIG2       -0.0358
     17    H      -69.5830  -90.6270   -8.6250 H       2  LIG2        0.0312
     18    H      -67.2360  -89.6990   -8.5410 H       2  LIG2        0.0309
     19    H      -70.4300  -88.2710  -10.4010 H       2  LIG2        0.0310
     20    H      -70.8570  -86.7850   -8.9010 H       2  LIG2        0.0331
     21    H      -66.7650  -87.4470   -9.4290 H       2  LIG2        0.0269
     22    H      -68.3640  -87.2610  -10.0620 H       2  LIG2        0.0269
     23    H      -71.8610  -90.5140   -9.0180 H       2  LIG2        0.0301
     24    H      -72.1070  -88.6800   -6.9350 H       2  LIG2        0.0269
     25    H      -72.6670  -87.1050   -7.4770 H       2  LIG2        0.0269
     26    H      -67.4770  -87.1610   -7.1790 H       2  LIG2        0.0293
     27    H      -68.3100  -85.9790   -8.1280 H       2  LIG2        0.0293
     28    H      -66.7850  -91.5120  -10.9620 H       2  LIG2        0.0235
     29    H      -68.4200  -92.1590  -11.0870 H       2  LIG2        0.0235
     30    H      -67.6680  -91.9600   -9.5120 H       2  LIG2        0.0235
     31    H      -67.5080  -89.4360  -12.3360 H       2  LIG2        0.0235
     32    H      -68.8340  -88.4210  -11.8340 H       2  LIG2        0.0235
     33    H      -69.1620  -90.0250  -12.4500 H       2  LIG2        0.0235
     34    H      -73.3280  -87.9510   -9.6260 H       2  LIG2        0.0268
     35    H      -73.7890  -89.2620   -8.5440 H       2  LIG2        0.0268
     36    H      -72.3410  -89.0940  -11.6920 H       2  LIG2        0.0233
     37    H      -73.2150  -90.5020  -11.0960 H       2  LIG2        0.0233
     38    H      -71.5040  -90.6300  -11.4850 H       2  LIG2        0.0233
     39    H      -70.2890  -85.4850   -6.7210 H       2  LIG2        0.0257
     40    H      -69.2590  -86.2620   -5.5270 H       2  LIG2        0.0257
     41    H      -70.9320  -86.7530   -5.6890 H       2  LIG2        0.0257
     42    H      -68.7070  -88.5570   -5.9660 H       2  LIG2        0.2102
@<TRIPOS>BOND
     1    33    13    1
     2    31    13    1
     3    32    13    1
     4    13     3    1
     5    36    15    1
     6    38    15    1
     7    37    15    1
     8    29    12    1
     9    15     8    1
    10    28    12    1
    11    12     3    1
    12    12    30    1
    13     3     2    1
    14     3     4    1
    15    19     5    1
    16    22     7    1
    17    34    14    1
    18     8     5    1
    19     8    23    1
    20     8    14    1
    21     5     2    1
    22     5     6    1
    23    21     7    1
    24     2     4    1
    25     2    17    1
    26     7     4    1
    27     7    11    1
    28     4    18    1
    29    14    35    1
    30    14    10    1
    31    20     6    1
    32     6    10    1
    33     6     9    1
    34    27    11    1
    35    11     9    1
    36    11    26    1
    37    10    25    1
    38    10    24    1
    39     9     1    1
    40     9    16    1
    41    39    16    1
    42     1    42    1
    43    16    41    1
    44    16    40    1
@<TRIPOS>MOLECULE
11996452_7_run_14.pdb
 42 44 0 0 0
SMALL
GASTEIGER

@<TRIPOS>ATOM
      1    O      -67.0390  -89.3680   -7.1310 O.3     2  LIG2       -0.3886
      2    C      -68.8380  -90.3130   -9.2760 C.3     2  LIG2       -0.0289
      3    C      -68.9760  -90.1920  -10.7880 C.3     2  LIG2       -0.0284
      4    C      -67.9870  -89.3090  -10.0640 C.3     2  LIG2       -0.0319
      5    C      -69.9020  -89.7720   -8.2740 C.3     2  LIG2       -0.0294
      6    C      -69.4120  -88.8390   -7.1110 C.3     2  LIG2       -0.0090
      7    C      -68.2010  -87.8180   -9.7540 C.3     2  LIG2       -0.0468
      8    C      -70.7000  -90.9240   -7.6130 C.3     2  LIG2       -0.0404
      9    C      -67.9440  -88.2760   -7.1370 C.3     2  LIG2        0.0664
     10    C      -69.8120  -89.5810   -5.8200 C.3     2  LIG2       -0.0471
     11    C      -67.6280  -87.3890   -8.3860 C.3     2  LIG2       -0.0237
     12    C      -68.3960  -91.3520  -11.6190 C.3     2  LIG2       -0.0593
     13    C      -70.2350  -89.5890  -11.4540 C.3     2  LIG2       -0.0593
     14    C      -71.0180  -90.4350   -6.1990 C.3     2  LIG2       -0.0498
     15    C      -71.9410  -91.3510   -8.4180 C.3     2  LIG2       -0.0621
     16    C      -67.6180  -87.4530   -5.8660 C.3     2  LIG2       -0.0358
     17    H      -68.3000  -91.1740   -8.8750 H       2  LIG2        0.0312
     18    H      -66.9320  -89.5340  -10.2220 H       2  LIG2        0.0309
     19    H      -70.6210  -89.1650   -8.8220 H       2  LIG2        0.0310
     20    H      -70.0490  -87.9510   -7.1370 H       2  LIG2        0.0331
     21    H      -67.7330  -87.2230  -10.5390 H       2  LIG2        0.0269
     22    H      -69.2550  -87.5480   -9.7820 H       2  LIG2        0.0269
     23    H      -70.0560  -91.7980   -7.5010 H       2  LIG2        0.0301
     24    H      -68.9980  -90.2160   -5.4670 H       2  LIG2        0.0269
     25    H      -70.0610  -88.8930   -5.0110 H       2  LIG2        0.0269
     26    H      -66.5480  -87.2610   -8.4790 H       2  LIG2        0.0293
     27    H      -68.0130  -86.3840   -8.2040 H       2  LIG2        0.0293
     28    H      -68.1190  -91.0180  -12.6190 H       2  LIG2        0.0235
     29    H      -69.1220  -92.1590  -11.7230 H       2  LIG2        0.0235
     30    H      -67.5020  -91.7790  -11.1610 H       2  LIG2        0.0235
     31    H      -70.0060  -89.2470  -12.4630 H       2  LIG2        0.0235
     32    H      -70.6600  -88.7380  -10.9290 H       2  LIG2        0.0235
     33    H      -71.0230  -90.3390  -11.5320 H       2  LIG2        0.0235
     34    H      -71.9300  -89.8350   -6.1880 H       2  LIG2        0.0268
     35    H      -71.1580  -91.2600   -5.5000 H       2  LIG2        0.0268
     36    H      -72.6400  -90.5240   -8.5480 H       2  LIG2        0.0233
     37    H      -72.4750  -92.1590   -7.9160 H       2  LIG2        0.0233
     38    H      -71.6610  -91.7080   -9.4090 H       2  LIG2        0.0233
     39    H      -68.3010  -86.6120   -5.7530 H       2  LIG2        0.0257
     40    H      -66.6040  -87.0490   -5.8970 H       2  LIG2        0.0257
     41    H      -67.6890  -88.0540   -4.9580 H       2  LIG2        0.0257
     42    H      -66.1450  -89.0210   -7.1630 H       2  LIG2        0.2102
@<TRIPOS>BOND
     1    28    12    1
     2    31    13    1
     3    29    12    1
     4    12    30    1
     5    12     3    1
     6    33    13    1
     7    13    32    1
     8    13     3    1
     9     3     4    1
    10     3     2    1
    11    21     7    1
    12    18     4    1
    13     4     7    1
    14     4     2    1
    15    22     7    1
    16     7    11    1
    17    38    15    1
    18     2    17    1
    19     2     5    1
    20    19     5    1
    21    36    15    1
    22    26    11    1
    23    15    37    1
    24    15     8    1
    25    11    27    1
    26    11     9    1
    27     5     8    1
    28     5     6    1
    29     8    23    1
    30     8    14    1
    31    42     1    1
    32     9     1    1
    33     9     6    1
    34     9    16    1
    35    20     6    1
    36     6    10    1
    37    14    34    1
    38    14    10    1
    39    14    35    1
    40    40    16    1
    41    16    39    1
    42    16    41    1
    43    10    24    1
    44    10    25    1
@<TRIPOS>MOLECULE
11996452_7_run_19.pdb
 42 44 0 0 0
SMALL
GASTEIGER

@<TRIPOS>ATOM
      1    O      -62.5710  -72.7810   -7.0070 O.3     2  LIG2       -0.3886
      2    C      -59.6400  -72.4500   -7.1860 C.3     2  LIG2       -0.0289
      3    C      -58.4650  -72.1520   -6.2630 C.3     2  LIG2       -0.0284
      4    C      -59.8730  -71.9900   -5.7420 C.3     2  LIG2       -0.0319
      5    C      -60.0720  -71.5110   -8.3520 C.3     2  LIG2       -0.0294
      6    C      -61.5790  -71.0780   -8.4300 C.3     2  LIG2       -0.0090
      7    C      -60.5900  -70.6430   -5.5440 C.3     2  LIG2       -0.0468
      8    C      -59.7110  -72.1140   -9.7330 C.3     2  LIG2       -0.0404
      9    C      -62.5340  -71.3780   -7.2190 C.3     2  LIG2        0.0664
     10    C      -62.0640  -71.5970   -9.7990 C.3     2  LIG2       -0.0471
     11    C      -62.0960  -70.6960   -5.8820 C.3     2  LIG2       -0.0237
     12    C      -57.6710  -73.3710   -5.7590 C.3     2  LIG2       -0.0593
     13    C      -57.5510  -70.9220   -6.4680 C.3     2  LIG2       -0.0593
     14    C      -60.8180  -71.6480  -10.6790 C.3     2  LIG2       -0.0498
     15    C      -58.2920  -71.7520  -10.2080 C.3     2  LIG2       -0.0621
     16    C      -63.9950  -70.9610   -7.5170 C.3     2  LIG2       -0.0358
     17    H      -59.8810  -73.4940   -7.3920 H       2  LIG2        0.0312
     18    H      -60.2050  -72.7260   -5.0090 H       2  LIG2        0.0309
     19    H      -59.5260  -70.5740   -8.2660 H       2  LIG2        0.0310
     20    H      -61.5830  -69.9890   -8.5220 H       2  LIG2        0.0331
     21    H      -60.4660  -70.3250   -4.5090 H       2  LIG2        0.0269
     22    H      -60.1350  -69.8540   -6.1410 H       2  LIG2        0.0269
     23    H      -59.7800  -73.2030   -9.6860 H       2  LIG2        0.0301
     24    H      -62.4990  -72.5930   -9.7060 H       2  LIG2        0.0269
     25    H      -62.8250  -70.9500  -10.2370 H       2  LIG2        0.0269
     26    H      -62.6290  -71.1530   -5.0460 H       2  LIG2        0.0293
     27    H      -62.4340  -69.6590   -5.8950 H       2  LIG2        0.0293
     28    H      -57.1830  -73.1550   -4.8080 H       2  LIG2        0.0235
     29    H      -56.9000  -73.6590   -6.4740 H       2  LIG2        0.0235
     30    H      -58.3090  -74.2420   -5.6030 H       2  LIG2        0.0235
     31    H      -57.0350  -70.6720   -5.5410 H       2  LIG2        0.0235
     32    H      -58.0690  -70.0210   -6.7840 H       2  LIG2        0.0235
     33    H      -56.7900  -71.1310   -7.2220 H       2  LIG2        0.0235
     34    H      -60.5960  -70.6590  -11.0850 H       2  LIG2        0.0268
     35    H      -60.9530  -72.3280  -11.5210 H       2  LIG2        0.0268
     36    H      -58.1620  -70.6720  -10.2980 H       2  LIG2        0.0233
     37    H      -58.0820  -72.1910  -11.1840 H       2  LIG2        0.0233
     38    H      -57.5390  -72.1210   -9.5120 H       2  LIG2        0.0233
     39    H      -64.0640  -69.8970   -7.7470 H       2  LIG2        0.0257
     40    H      -64.6510  -71.1540   -6.6670 H       2  LIG2        0.0257
     41    H      -64.4130  -71.5030   -8.3660 H       2  LIG2        0.0257
     42    H      -63.1080  -72.9560   -6.2320 H       2  LIG2        0.2102
@<TRIPOS>BOND
     1    35    14    1
     2    37    15    1
     3    34    14    1
     4    14    10    1
     5    14     8    1
     6    36    15    1
     7    25    10    1
     8    15     8    1
     9    15    38    1
    10    10    24    1
    11    10     6    1
    12     8    23    1
    13     8     5    1
    14    20     6    1
    15     6     5    1
    16     6     9    1
    17    41    16    1
    18     5    19    1
    19     5     2    1
    20    39    16    1
    21    16     9    1
    22    16    40    1
    23    17     2    1
    24    33    13    1
    25     9     1    1
    26     9    11    1
    27     2     3    1
    28     2     4    1
    29     1    42    1
    30    32    13    1
    31    29    12    1
    32    13     3    1
    33    13    31    1
    34     3    12    1
    35     3     4    1
    36    22     7    1
    37    27    11    1
    38    11     7    1
    39    11    26    1
    40    12    30    1
    41    12    28    1
    42     4     7    1
    43     4    18    1
    44     7    21    1
