@<TRIPOS>MOLECULE
11996452_10_run_22.pdb
 42 44 0 0 0
SMALL
GASTEIGER

@<TRIPOS>ATOM
      1    O      -71.7940  -89.3480  -13.1450 O.3     2  LIG2       -0.3886
      2    C      -69.3010  -90.6390   -9.5310 C.3     2  LIG2       -0.0289
      3    C      -68.1590  -89.6410   -9.6390 C.3     2  LIG2       -0.0284
      4    C      -68.3710  -90.6390  -10.7650 C.3     2  LIG2       -0.0319
      5    C      -70.8420  -90.3800   -9.6220 C.3     2  LIG2       -0.0294
      6    C      -71.4550  -89.5850  -10.8060 C.3     2  LIG2       -0.0090
      7    C      -68.8930  -90.2440  -12.1670 C.3     2  LIG2       -0.0468
      8    C      -71.5320  -89.8600   -8.3230 C.3     2  LIG2       -0.0404
      9    C      -71.5260  -90.3490  -12.1740 C.3     2  LIG2        0.0664
     10    C      -72.7910  -89.0610  -10.2530 C.3     2  LIG2       -0.0471
     11    C      -70.1740  -90.9940  -12.5870 C.3     2  LIG2       -0.0237
     12    C      -68.3300  -88.1200   -9.8700 C.3     2  LIG2       -0.0593
     13    C      -66.9600  -89.9100   -8.7070 C.3     2  LIG2       -0.0593
     14    C      -72.5100  -88.7670   -8.7820 C.3     2  LIG2       -0.0498
     15    C      -70.6030  -89.3680   -7.1950 C.3     2  LIG2       -0.0621
     16    C      -72.6550  -91.4010  -12.2860 C.3     2  LIG2       -0.0358
     17    H      -69.1350  -91.4530   -8.8230 H       2  LIG2        0.0312
     18    H      -67.6230  -91.4300  -10.8420 H       2  LIG2        0.0309
     19    H      -71.2440  -91.3870   -9.7460 H       2  LIG2        0.0310
     20    H      -70.8650  -88.6900  -10.9610 H       2  LIG2        0.0331
     21    H      -69.0140  -89.1700  -12.2960 H       2  LIG2        0.0269
     22    H      -68.1140  -90.5140  -12.8810 H       2  LIG2        0.0269
     23    H      -72.1250  -90.6740   -7.9010 H       2  LIG2        0.0301
     24    H      -73.1340  -88.1690  -10.7800 H       2  LIG2        0.0269
     25    H      -73.5820  -89.8070  -10.3230 H       2  LIG2        0.0269
     26    H      -70.1560  -91.1520  -13.6670 H       2  LIG2        0.0293
     27    H      -70.1140  -92.0000  -12.1680 H       2  LIG2        0.0293
     28    H      -67.4040  -87.6970  -10.2580 H       2  LIG2        0.0235
     29    H      -68.5450  -87.6020   -8.9360 H       2  LIG2        0.0235
     30    H      -69.0950  -87.8290  -10.5740 H       2  LIG2        0.0235
     31    H      -66.0400  -89.4910   -9.1170 H       2  LIG2        0.0235
     32    H      -66.7850  -90.9760   -8.5540 H       2  LIG2        0.0235
     33    H      -67.1220  -89.4660   -7.7250 H       2  LIG2        0.0235
     34    H      -73.4290  -88.7700   -8.1950 H       2  LIG2        0.0268
     35    H      -72.0650  -87.7750   -8.6800 H       2  LIG2        0.0268
     36    H      -70.0000  -88.5160   -7.5040 H       2  LIG2        0.0233
     37    H      -69.9270  -90.1550   -6.8590 H       2  LIG2        0.0233
     38    H      -71.1820  -89.0540   -6.3260 H       2  LIG2        0.0233
     39    H      -72.5820  -92.1540  -11.5000 H       2  LIG2        0.0257
     40    H      -72.6150  -91.9270  -13.2410 H       2  LIG2        0.0257
     41    H      -73.6470  -90.9550  -12.2220 H       2  LIG2        0.0257
     42    H      -71.3570  -88.5370  -12.8730 H       2  LIG2        0.2102
@<TRIPOS>BOND
     1    26    11    1
     2    40    16    1
     3     1    42    1
     4     1     9    1
     5    22     7    1
     6    11     9    1
     7    11    27    1
     8    11     7    1
     9    21     7    1
    10    16    41    1
    11    16     9    1
    12    16    39    1
    13     9     6    1
    14     7     4    1
    15    20     6    1
    16    18     4    1
    17     6    10    1
    18     6     5    1
    19    24    10    1
    20     4     3    1
    21     4     2    1
    22    30    12    1
    23    25    10    1
    24    28    12    1
    25    10    14    1
    26    12     3    1
    27    12    29    1
    28    19     5    1
    29     3     2    1
    30     3    13    1
    31     5     2    1
    32     5     8    1
    33     2    17    1
    34    31    13    1
    35    14    35    1
    36    14     8    1
    37    14    34    1
    38    13    32    1
    39    13    33    1
    40     8    23    1
    41     8    15    1
    42    36    15    1
    43    15    37    1
    44    15    38    1
@<TRIPOS>MOLECULE
11996452_10_run_23.pdb
 42 44 0 0 0
SMALL
GASTEIGER

@<TRIPOS>ATOM
      1    O      -66.1710  -89.3010   -9.4290 O.3     2  LIG2       -0.3886
      2    C      -69.9050  -90.0120   -6.8820 C.3     2  LIG2       -0.0289
      3    C      -69.2690  -90.0550   -5.5010 C.3     2  LIG2       -0.0284
      4    C      -68.8780  -91.1090   -6.5240 C.3     2  LIG2       -0.0319
      5    C      -69.6820  -88.9750   -8.0330 C.3     2  LIG2       -0.0294
      6    C      -68.2540  -88.6110   -8.5200 C.3     2  LIG2       -0.0090
      7    C      -67.4900  -91.1650   -7.2030 C.3     2  LIG2       -0.0468
      8    C      -70.4770  -87.6380   -7.9210 C.3     2  LIG2       -0.0404
      9    C      -67.5330  -89.6980   -9.3910 C.3     2  LIG2        0.0664
     10    C      -68.4230  -87.2260   -9.1690 C.3     2  LIG2       -0.0471
     11    C      -67.5490  -91.1110   -8.7430 C.3     2  LIG2       -0.0237
     12    C      -68.2370  -89.0310   -4.9690 C.3     2  LIG2       -0.0593
     13    C      -70.1980  -90.5200   -4.3630 C.3     2  LIG2       -0.0593
     14    C      -69.4890  -86.5330   -8.3260 C.3     2  LIG2       -0.0498
     15    C      -71.1500  -87.3430   -6.5650 C.3     2  LIG2       -0.0621
     16    C      -68.0170  -89.7980  -10.8570 C.3     2  LIG2       -0.0358
     17    H      -70.9450  -90.3410   -6.9180 H       2  LIG2        0.0312
     18    H      -69.2520  -92.1160   -6.3290 H       2  LIG2        0.0309
     19    H      -70.1320  -89.4760   -8.8920 H       2  LIG2        0.0310
     20    H      -67.6330  -88.4210   -7.6540 H       2  LIG2        0.0331
     21    H      -66.7890  -90.4280   -6.8160 H       2  LIG2        0.0269
     22    H      -67.0450  -92.1240   -6.9320 H       2  LIG2        0.0269
     23    H      -71.2770  -87.6510   -8.6650 H       2  LIG2        0.0301
     24    H      -67.4900  -86.6600   -9.1790 H       2  LIG2        0.0269
     25    H      -68.7720  -87.2980  -10.1980 H       2  LIG2        0.0269
     26    H      -66.7350  -91.7120   -9.1520 H       2  LIG2        0.0293
     27    H      -68.4530  -91.6370   -9.0530 H       2  LIG2        0.0293
     28    H      -67.6820  -89.4610   -4.1360 H       2  LIG2        0.0235
     29    H      -68.7300  -88.1370   -4.5910 H       2  LIG2        0.0235
     30    H      -67.4870  -88.7020   -5.6730 H       2  LIG2        0.0235
     31    H      -69.6270  -90.9600   -3.5430 H       2  LIG2        0.0235
     32    H      -70.9140  -91.2750   -4.6940 H       2  LIG2        0.0235
     33    H      -70.7720  -89.6860   -3.9610 H       2  LIG2        0.0235
     34    H      -69.9770  -85.7340   -8.8840 H       2  LIG2        0.0268
     35    H      -69.0280  -86.0780   -7.4460 H       2  LIG2        0.0268
     36    H      -70.4240  -87.2600   -5.7580 H       2  LIG2        0.0233
     37    H      -71.8650  -88.1210   -6.2950 H       2  LIG2        0.0233
     38    H      -71.6990  -86.4030   -6.6020 H       2  LIG2        0.0233
     39    H      -69.0880  -89.9970  -10.9140 H       2  LIG2        0.0257
     40    H      -67.5090  -90.6050  -11.3890 H       2  LIG2        0.0257
     41    H      -67.8210  -88.8870  -11.4220 H       2  LIG2        0.0257
     42    H      -65.8710  -89.1580   -8.5280 H       2  LIG2        0.2102
@<TRIPOS>BOND
     1    41    16    1
     2    40    16    1
     3    39    16    1
     4    16     9    1
     5    25    10    1
     6     1     9    1
     7     1    42    1
     8     9    11    1
     9     9     6    1
    10    24    10    1
    11    10     6    1
    12    10    14    1
    13    26    11    1
    14    27    11    1
    15    19     5    1
    16    34    14    1
    17    11     7    1
    18    23     8    1
    19     6     5    1
    20     6    20    1
    21    14     8    1
    22    14    35    1
    23     5     8    1
    24     5     2    1
    25     8    15    1
    26     7    22    1
    27     7    21    1
    28     7     4    1
    29    17     2    1
    30     2     4    1
    31     2     3    1
    32    38    15    1
    33    15    37    1
    34    15    36    1
    35     4    18    1
    36     4     3    1
    37    30    12    1
    38     3    12    1
    39     3    13    1
    40    12    29    1
    41    12    28    1
    42    32    13    1
    43    13    33    1
    44    13    31    1
@<TRIPOS>MOLECULE
11996452_10_run_12.pdb
 42 44 0 0 0
SMALL
GASTEIGER

@<TRIPOS>ATOM
      1    O      -69.9880  -89.1970  -13.0210 O.3     2  LIG2       -0.3886
      2    C      -68.9480  -89.6780   -8.5920 C.3     2  LIG2       -0.0289
      3    C      -69.0140  -88.2230   -8.1540 C.3     2  LIG2       -0.0284
      4    C      -67.9790  -88.6330   -9.1890 C.3     2  LIG2       -0.0319
      5    C      -69.9690  -90.4900   -9.4570 C.3     2  LIG2       -0.0294
      6    C      -70.4730  -89.9500  -10.8230 C.3     2  LIG2       -0.0090
      7    C      -68.0560  -88.2230  -10.6790 C.3     2  LIG2       -0.0468
      8    C      -71.2140  -91.0530   -8.7050 C.3     2  LIG2       -0.0404
      9    C      -69.4460  -90.0260  -12.0050 C.3     2  LIG2        0.0664
     10    C      -71.8120  -90.6760  -11.0400 C.3     2  LIG2       -0.0471
     11    C      -68.0590  -89.4190  -11.6520 C.3     2  LIG2       -0.0237
     12    C      -70.1590  -87.2430   -8.5060 C.3     2  LIG2       -0.0593
     13    C      -68.4830  -87.9380   -6.7350 C.3     2  LIG2       -0.0593
     14    C      -72.4090  -90.8100   -9.6420 C.3     2  LIG2       -0.0498
     15    C      -71.4730  -90.5080   -7.2860 C.3     2  LIG2       -0.0621
     16    C      -69.2520  -91.4310  -12.6230 C.3     2  LIG2       -0.0358
     17    H      -68.5060  -90.3580   -7.8610 H       2  LIG2        0.0312
     18    H      -66.9440  -88.6380   -8.8440 H       2  LIG2        0.0309
     19    H      -69.3980  -91.3810   -9.7220 H       2  LIG2        0.0310
     20    H      -70.7540  -88.9120  -10.6990 H       2  LIG2        0.0331
     21    H      -68.8760  -87.5430  -10.8990 H       2  LIG2        0.0269
     22    H      -67.1590  -87.6380  -10.8910 H       2  LIG2        0.0269
     23    H      -71.0920  -92.1340   -8.6030 H       2  LIG2        0.0301
     24    H      -72.4760  -90.1240  -11.7070 H       2  LIG2        0.0269
     25    H      -71.6720  -91.6690  -11.4660 H       2  LIG2        0.0269
     26    H      -67.5390  -89.1340  -12.5690 H       2  LIG2        0.0293
     27    H      -67.4290  -90.1960  -11.2160 H       2  LIG2        0.0293
     28    H      -69.8160  -86.2150   -8.3950 H       2  LIG2        0.0235
     29    H      -71.0050  -87.3680   -7.8320 H       2  LIG2        0.0235
     30    H      -70.5470  -87.3070   -9.5120 H       2  LIG2        0.0235
     31    H      -68.1310  -86.9090   -6.6450 H       2  LIG2        0.0235
     32    H      -67.6460  -88.5860   -6.4680 H       2  LIG2        0.0235
     33    H      -69.2610  -88.0930   -5.9880 H       2  LIG2        0.0235
     34    H      -73.1330  -91.6240   -9.5980 H       2  LIG2        0.0268
     35    H      -72.9360  -89.8930   -9.3740 H       2  LIG2        0.0268
     36    H      -71.6580  -89.4370   -7.2870 H       2  LIG2        0.0233
     37    H      -70.6300  -90.7040   -6.6220 H       2  LIG2        0.0233
     38    H      -72.3460  -90.9860   -6.8420 H       2  LIG2        0.0233
     39    H      -68.9360  -92.1590  -11.8740 H       2  LIG2        0.0257
     40    H      -68.4900  -91.4200  -13.4040 H       2  LIG2        0.0257
     41    H      -70.1620  -91.8110  -13.0860 H       2  LIG2        0.0257
     42    H      -70.2140  -88.3480  -12.6330 H       2  LIG2        0.2102
@<TRIPOS>BOND
     1    40    16    1
     2    41    16    1
     3     1    42    1
     4     1     9    1
     5    16     9    1
     6    16    39    1
     7    26    11    1
     8     9    11    1
     9     9     6    1
    10    24    10    1
    11    11    27    1
    12    11     7    1
    13    25    10    1
    14    10     6    1
    15    10    14    1
    16    21     7    1
    17    22     7    1
    18     6    20    1
    19     6     5    1
    20     7     4    1
    21    19     5    1
    22    14    34    1
    23    14    35    1
    24    14     8    1
    25    30    12    1
    26     5     8    1
    27     5     2    1
    28     4    18    1
    29     4     2    1
    30     4     3    1
    31     8    23    1
    32     8    15    1
    33     2     3    1
    34     2    17    1
    35    12    28    1
    36    12     3    1
    37    12    29    1
    38     3    13    1
    39    36    15    1
    40    15    38    1
    41    15    37    1
    42    13    31    1
    43    13    32    1
    44    13    33    1
@<TRIPOS>MOLECULE
11996452_10_run_12.pdb
 42 44 0 0 0
SMALL
GASTEIGER

@<TRIPOS>ATOM
      1    O      -69.0390  -88.1590  -11.1790 O.3     2  LIG2       -0.3886
      2    C      -69.1110  -89.9810   -6.9820 C.3     2  LIG2       -0.0289
      3    C      -67.9860  -89.1850   -6.3390 C.3     2  LIG2       -0.0284
      4    C      -67.6650  -90.0900   -7.5150 C.3     2  LIG2       -0.0319
      5    C      -70.3060  -89.4640   -7.8520 C.3     2  LIG2       -0.0294
      6    C      -70.0680  -88.5350   -9.0730 C.3     2  LIG2       -0.0090
      7    C      -67.2820  -89.5620   -8.9180 C.3     2  LIG2       -0.0468
      8    C      -71.5260  -88.8850   -7.0720 C.3     2  LIG2       -0.0404
      9    C      -69.4700  -89.2250  -10.3470 C.3     2  LIG2        0.0664
     10    C      -71.4150  -87.8160   -9.2620 C.3     2  LIG2       -0.0471
     11    C      -68.2010  -90.0720  -10.0460 C.3     2  LIG2       -0.0237
     12    C      -67.8200  -87.6490   -6.4370 C.3     2  LIG2       -0.0593
     13    C      -67.5380  -89.6840   -4.9510 C.3     2  LIG2       -0.0593
     14    C      -71.9530  -87.6270   -7.8460 C.3     2  LIG2       -0.0498
     15    C      -71.3160  -88.5970   -5.5720 C.3     2  LIG2       -0.0621
     16    C      -70.4680  -90.0690  -11.1740 C.3     2  LIG2       -0.0358
     17    H      -69.4590  -90.8360   -6.4010 H       2  LIG2        0.0312
     18    H      -67.0980  -90.9920   -7.2760 H       2  LIG2        0.0309
     19    H      -70.6910  -90.3850   -8.2940 H       2  LIG2        0.0310
     20    H      -69.3880  -87.7460   -8.7770 H       2  LIG2        0.0331
     21    H      -67.1810  -88.4800   -8.9600 H       2  LIG2        0.0269
     22    H      -66.2770  -89.9320   -9.1300 H       2  LIG2        0.0269
     23    H      -72.3460  -89.6040   -7.1360 H       2  LIG2        0.0301
     24    H      -71.3030  -86.8600   -9.7770 H       2  LIG2        0.0269
     25    H      -72.1210  -88.4160   -9.8350 H       2  LIG2        0.0269
     26    H      -67.6130  -90.1900  -10.9590 H       2  LIG2        0.0293
     27    H      -68.5020  -91.0880   -9.7870 H       2  LIG2        0.0293
     28    H      -66.7890  -87.3720   -6.2140 H       2  LIG2        0.0235
     29    H      -68.4470  -87.1370   -5.7090 H       2  LIG2        0.0235
     30    H      -68.0320  -87.2080   -7.4000 H       2  LIG2        0.0235
     31    H      -66.5000  -89.4100   -4.7500 H       2  LIG2        0.0235
     32    H      -67.6040  -90.7690   -4.8590 H       2  LIG2        0.0235
     33    H      -68.1560  -89.2560   -4.1630 H       2  LIG2        0.0235
     34    H      -73.0360  -87.4980   -7.8480 H       2  LIG2        0.0268
     35    H      -71.5210  -86.7290   -7.4010 H       2  LIG2        0.0268
     36    H      -70.5460  -87.8470   -5.4030 H       2  LIG2        0.0233
     37    H      -71.0350  -89.4970   -5.0260 H       2  LIG2        0.0233
     38    H      -72.2340  -88.2220   -5.1180 H       2  LIG2        0.0233
     39    H      -70.9290  -90.8520  -10.5690 H       2  LIG2        0.0257
     40    H      -69.9750  -90.5580  -12.0150 H       2  LIG2        0.0257
     41    H      -71.2710  -89.4660  -11.5970 H       2  LIG2        0.0257
     42    H      -69.8120  -87.6700  -11.4710 H       2  LIG2        0.2102
@<TRIPOS>BOND
     1    40    16    1
     2    41    16    1
     3    42     1    1
     4     1     9    1
     5    16    39    1
     6    16     9    1
     7    26    11    1
     8     9    11    1
     9     9     6    1
    10    11    27    1
    11    11     7    1
    12    25    10    1
    13    24    10    1
    14    10     6    1
    15    10    14    1
    16    22     7    1
    17     6    20    1
    18     6     5    1
    19    21     7    1
    20     7     4    1
    21    19     5    1
    22     5     8    1
    23     5     2    1
    24    34    14    1
    25    14    35    1
    26    14     8    1
    27     4    18    1
    28     4     2    1
    29     4     3    1
    30    30    12    1
    31    23     8    1
    32     8    15    1
    33     2    17    1
    34     2     3    1
    35    12     3    1
    36    12    28    1
    37    12    29    1
    38     3    13    1
    39    15    36    1
    40    15    38    1
    41    15    37    1
    42    13    32    1
    43    13    31    1
    44    13    33    1
@<TRIPOS>MOLECULE
11996452_10_run_17.pdb
 42 44 0 0 0
SMALL
GASTEIGER

@<TRIPOS>ATOM
      1    O      -67.0190  -89.3680   -7.4130 O.3     2  LIG2       -0.3886
      2    C      -71.2150  -87.5940   -7.8390 C.3     2  LIG2       -0.0289
      3    C      -71.6100  -88.1900   -9.1800 C.3     2  LIG2       -0.0284
      4    C      -70.4260  -87.2410   -9.1190 C.3     2  LIG2       -0.0319
      5    C      -70.5660  -88.3030   -6.6020 C.3     2  LIG2       -0.0294
      6    C      -69.2920  -89.1760   -6.7540 C.3     2  LIG2       -0.0090
      7    C      -68.9590  -87.6940   -9.3110 C.3     2  LIG2       -0.0468
      8    C      -71.5400  -89.0820   -5.6650 C.3     2  LIG2       -0.0404
      9    C      -67.9530  -88.3920   -6.9780 C.3     2  LIG2        0.0664
     10    C      -69.3330  -90.1120   -5.5340 C.3     2  LIG2       -0.0471
     11    C      -68.0400  -87.3440   -8.1230 C.3     2  LIG2       -0.0237
     12    C      -71.4300  -89.6760   -9.5770 C.3     2  LIG2       -0.0593
     13    C      -72.9060  -87.6260   -9.7960 C.3     2  LIG2       -0.0593
     14    C      -70.8170  -90.3910   -5.3120 C.3     2  LIG2       -0.0498
     15    C      -72.9640  -89.3340   -6.2000 C.3     2  LIG2       -0.0621
     16    C      -67.3560  -87.7260   -5.7150 C.3     2  LIG2       -0.0358
     17    H      -71.8800  -86.8110   -7.4710 H       2  LIG2        0.0312
     18    H      -70.5860  -86.2570   -9.5640 H       2  LIG2        0.0309
     19    H      -70.2360  -87.4590   -5.9940 H       2  LIG2        0.0310
     20    H      -69.4280  -89.8390   -7.5990 H       2  LIG2        0.0331
     21    H      -68.8620  -88.7430   -9.5790 H       2  LIG2        0.0269
     22    H      -68.5760  -87.1590  -10.1820 H       2  LIG2        0.0269
     23    H      -71.6550  -88.5110   -4.7400 H       2  LIG2        0.0301
     24    H      -68.7740  -91.0330   -5.7030 H       2  LIG2        0.0269
     25    H      -68.9220  -89.6380   -4.6430 H       2  LIG2        0.0269
     26    H      -67.0390  -87.1260   -8.4990 H       2  LIG2        0.0293
     27    H      -68.3860  -86.3930   -7.7130 H       2  LIG2        0.0293
     28    H      -71.4470  -89.7750  -10.6620 H       2  LIG2        0.0235
     29    H      -72.2440  -90.2880   -9.1920 H       2  LIG2        0.0235
     30    H      -70.5090  -90.1440   -9.2620 H       2  LIG2        0.0235
     31    H      -72.9010  -87.7210  -10.8830 H       2  LIG2        0.0235
     32    H      -73.0460  -86.5670   -9.5690 H       2  LIG2        0.0235
     33    H      -73.7810  -88.1530   -9.4170 H       2  LIG2        0.0235
     34    H      -71.0120  -90.7010   -4.2860 H       2  LIG2        0.0268
     35    H      -71.1420  -91.2050   -5.9630 H       2  LIG2        0.0268
     36    H      -72.9600  -89.9430   -7.1010 H       2  LIG2        0.0233
     37    H      -73.4790  -88.3990   -6.4270 H       2  LIG2        0.0233
     38    H      -73.5680  -89.8580   -5.4600 H       2  LIG2        0.0233
     39    H      -68.0620  -87.0340   -5.2550 H       2  LIG2        0.0257
     40    H      -66.4550  -87.1590   -5.9520 H       2  LIG2        0.0257
     41    H      -67.0700  -88.4560   -4.9570 H       2  LIG2        0.0257
     42    H      -66.1460  -88.9670   -7.4290 H       2  LIG2        0.2102
@<TRIPOS>BOND
     1    31    13    1
     2    28    12    1
     3    22     7    1
     4    13    32    1
     5    13    33    1
     6    13     3    1
     7    21     7    1
     8    12    30    1
     9    12    29    1
    10    12     3    1
    11    18     4    1
    12     7     4    1
    13     7    11    1
    14     3     4    1
    15     3     2    1
    16     4     2    1
    17    26    11    1
    18    11    27    1
    19    11     9    1
    20     2    17    1
    21     2     5    1
    22    20     6    1
    23    42     1    1
    24     1     9    1
    25    36    15    1
    26     9     6    1
    27     9    16    1
    28     6     5    1
    29     6    10    1
    30     5    19    1
    31     5     8    1
    32    37    15    1
    33    15     8    1
    34    15    38    1
    35    35    14    1
    36    40    16    1
    37    16    39    1
    38    16    41    1
    39    24    10    1
    40     8    14    1
    41     8    23    1
    42    10    14    1
    43    10    25    1
    44    14    34    1
@<TRIPOS>MOLECULE
11996452_10_run_14.pdb
 42 44 0 0 0
SMALL
GASTEIGER

@<TRIPOS>ATOM
      1    O      -63.1050  -73.4350   -7.1880 O.3     2  LIG2       -0.3886
      2    C      -59.2770  -70.9420   -6.9310 C.3     2  LIG2       -0.0289
      3    C      -58.3220  -71.9940   -6.3900 C.3     2  LIG2       -0.0284
      4    C      -59.5140  -71.5790   -5.5440 C.3     2  LIG2       -0.0319
      5    C      -60.2990  -71.0580   -8.1120 C.3     2  LIG2       -0.0294
      6    C      -61.3170  -72.2270   -8.1800 C.3     2  LIG2       -0.0090
      7    C      -60.7310  -72.4970   -5.2770 C.3     2  LIG2       -0.0468
      8    C      -59.7160  -70.8800   -9.5480 C.3     2  LIG2       -0.0404
      9    C      -62.5200  -72.1420   -7.1780 C.3     2  LIG2        0.0664
     10    C      -61.6830  -72.3160   -9.6720 C.3     2  LIG2       -0.0471
     11    C      -62.0780  -71.8840   -5.7110 C.3     2  LIG2       -0.0237
     12    C      -58.1890  -73.4350   -6.9390 C.3     2  LIG2       -0.0593
     13    C      -56.9470  -71.4640   -5.9370 C.3     2  LIG2       -0.0593
     14    C      -60.3950  -71.9580  -10.4070 C.3     2  LIG2       -0.0498
     15    C      -58.1800  -70.9150   -9.6820 C.3     2  LIG2       -0.0621
     16    C      -63.6330  -71.1390   -7.5650 C.3     2  LIG2       -0.0358
     17    H      -58.8920  -69.9200   -6.9150 H       2  LIG2        0.0312
     18    H      -59.2810  -70.9830   -4.6600 H       2  LIG2        0.0309
     19    H      -60.9230  -70.1740   -7.9710 H       2  LIG2        0.0310
     20    H      -60.7920  -73.1530   -7.9830 H       2  LIG2        0.0331
     21    H      -60.6130  -73.4990   -5.6830 H       2  LIG2        0.0269
     22    H      -60.7800  -72.6490   -4.1980 H       2  LIG2        0.0269
     23    H      -60.0370  -69.9070   -9.9290 H       2  LIG2        0.0301
     24    H      -62.0390  -73.3100   -9.9500 H       2  LIG2        0.0269
     25    H      -62.4600  -71.6020   -9.9440 H       2  LIG2        0.0269
     26    H      -62.8590  -72.2210   -5.0270 H       2  LIG2        0.0293
     27    H      -62.0170  -70.8080   -5.5380 H       2  LIG2        0.0293
     28    H      -57.7270  -74.0770   -6.1880 H       2  LIG2        0.0235
     29    H      -57.5450  -73.4640   -7.8160 H       2  LIG2        0.0235
     30    H      -59.1110  -73.9280   -7.2090 H       2  LIG2        0.0235
     31    H      -56.5060  -72.1110   -5.1770 H       2  LIG2        0.0235
     32    H      -57.0100  -70.4630   -5.5060 H       2  LIG2        0.0235
     33    H      -56.2530  -71.4110   -6.7750 H       2  LIG2        0.0235
     34    H      -60.6010  -71.6050  -11.4170 H       2  LIG2        0.0268
     35    H      -59.7610  -72.8430  -10.4970 H       2  LIG2        0.0268
     36    H      -57.7650  -71.8710   -9.3710 H       2  LIG2        0.0233
     37    H      -57.7080  -70.1330   -9.0870 H       2  LIG2        0.0233
     38    H      -57.8790  -70.7540  -10.7170 H       2  LIG2        0.0233
     39    H      -63.2400  -70.1280   -7.6830 H       2  LIG2        0.0257
     40    H      -64.4120  -71.0950   -6.8010 H       2  LIG2        0.0257
     41    H      -64.1310  -71.4090   -8.4960 H       2  LIG2        0.0257
     42    H      -63.8460  -73.4380   -6.5770 H       2  LIG2        0.2102
@<TRIPOS>BOND
     1    34    14    1
     2    38    15    1
     3    35    14    1
     4    14    10    1
     5    14     8    1
     6    24    10    1
     7    25    10    1
     8    23     8    1
     9    15     8    1
    10    15    36    1
    11    15    37    1
    12    10     6    1
    13     8     5    1
    14    41    16    1
    15     6     5    1
    16     6    20    1
    17     6     9    1
    18     5    19    1
    19     5     2    1
    20    29    12    1
    21    39    16    1
    22    16     9    1
    23    16    40    1
    24    30    12    1
    25     1     9    1
    26     1    42    1
    27     9    11    1
    28    12     3    1
    29    12    28    1
    30     2    17    1
    31     2     3    1
    32     2     4    1
    33    33    13    1
    34     3    13    1
    35     3     4    1
    36    13    32    1
    37    13    31    1
    38    11    27    1
    39    11     7    1
    40    11    26    1
    41    21     7    1
    42     4     7    1
    43     4    18    1
    44     7    22    1
@<TRIPOS>MOLECULE
11996452_10_run_10.pdb
 42 44 0 0 0
SMALL
GASTEIGER

@<TRIPOS>ATOM
      1    O      -71.4280  -86.6590   -7.9900 O.3     2  LIG2       -0.3886
      2    C      -68.1220  -89.3510   -6.3280 C.3     2  LIG2       -0.0289
      3    C      -68.9650  -90.3120   -5.5040 C.3     2  LIG2       -0.0284
      4    C      -68.9550  -88.8390   -5.1320 C.3     2  LIG2       -0.0319
      5    C      -68.3470  -88.8610   -7.7980 C.3     2  LIG2       -0.0294
      6    C      -69.7140  -88.2810   -8.2510 C.3     2  LIG2       -0.0090
      7    C      -70.1660  -87.8990   -5.3370 C.3     2  LIG2       -0.0468
      8    C      -67.8670  -89.8250   -8.9270 C.3     2  LIG2       -0.0404
      9    C      -70.0410  -86.8350   -7.7440 C.3     2  LIG2        0.0664
     10    C      -69.7170  -88.4800   -9.7770 C.3     2  LIG2       -0.0471
     11    C      -69.8550  -86.6670   -6.2100 C.3     2  LIG2       -0.0237
     12    C      -70.2560  -91.0060   -6.0010 C.3     2  LIG2       -0.0593
     13    C      -68.1720  -91.2560   -4.5790 C.3     2  LIG2       -0.0593
     14    C      -68.9730  -89.7950   -9.9950 C.3     2  LIG2       -0.0498
     15    C      -67.5110  -91.2640   -8.5050 C.3     2  LIG2       -0.0621
     16    C      -69.3030  -85.6920   -8.4800 C.3     2  LIG2       -0.0358
     17    H      -67.0470  -89.4180   -6.1530 H       2  LIG2        0.0312
     18    H      -68.4260  -88.5900   -4.2100 H       2  LIG2        0.0309
     19    H      -67.6650  -88.0130   -7.8710 H       2  LIG2        0.0310
     20    H      -70.5000  -88.9380   -7.8990 H       2  LIG2        0.0331
     21    H      -71.0560  -88.4130   -5.6950 H       2  LIG2        0.0269
     22    H      -70.4500  -87.5310   -4.3490 H       2  LIG2        0.0269
     23    H      -66.9650  -89.4030   -9.3770 H       2  LIG2        0.0301
     24    H      -70.7280  -88.5210  -10.1850 H       2  LIG2        0.0269
     25    H      -69.1880  -87.6800  -10.2930 H       2  LIG2        0.0269
     26    H      -70.4490  -85.8210   -5.8570 H       2  LIG2        0.0293
     27    H      -68.8240  -86.3740   -6.0040 H       2  LIG2        0.0293
     28    H      -70.8490  -91.3410   -5.1490 H       2  LIG2        0.0235
     29    H      -70.0260  -91.8920   -6.5910 H       2  LIG2        0.0235
     30    H      -70.9250  -90.4000   -6.5930 H       2  LIG2        0.0235
     31    H      -68.7750  -91.5700   -3.7260 H       2  LIG2        0.0235
     32    H      -67.2730  -90.7840   -4.1780 H       2  LIG2        0.0235
     33    H      -67.8540  -92.1510   -5.1130 H       2  LIG2        0.0235
     34    H      -68.5650  -89.8560  -11.0050 H       2  LIG2        0.0268
     35    H      -69.6590  -90.6350   -9.8720 H       2  LIG2        0.0268
     36    H      -68.3660  -91.7910   -8.0870 H       2  LIG2        0.0233
     37    H      -66.7110  -91.2780   -7.7640 H       2  LIG2        0.0233
     38    H      -67.1630  -91.8440   -9.3600 H       2  LIG2        0.0233
     39    H      -68.2200  -85.8150   -8.4290 H       2  LIG2        0.0257
     40    H      -69.5390  -84.7200   -8.0450 H       2  LIG2        0.0257
     41    H      -69.5770  -85.6310   -9.5340 H       2  LIG2        0.0257
     42    H      -71.6310  -85.7220   -7.9290 H       2  LIG2        0.2102
@<TRIPOS>BOND
     1    34    14    1
     2    25    10    1
     3    24    10    1
     4    14    35    1
     5    14    10    1
     6    14     8    1
     7    10     6    1
     8    41    16    1
     9    23     8    1
    10    38    15    1
    11     8    15    1
    12     8     5    1
    13    15    36    1
    14    15    37    1
    15    16    39    1
    16    16    40    1
    17    16     9    1
    18     6    20    1
    19     6     5    1
    20     6     9    1
    21     1    42    1
    22     1     9    1
    23    19     5    1
    24     5     2    1
    25     9    11    1
    26    30    12    1
    27    29    12    1
    28     2    17    1
    29     2     3    1
    30     2     4    1
    31    11    27    1
    32    11    26    1
    33    11     7    1
    34    12     3    1
    35    12    28    1
    36    21     7    1
    37     3     4    1
    38     3    13    1
    39     7     4    1
    40     7    22    1
    41     4    18    1
    42    33    13    1
    43    13    32    1
    44    13    31    1
@<TRIPOS>MOLECULE
11996452_10_run_11.pdb
 42 44 0 0 0
SMALL
GASTEIGER

@<TRIPOS>ATOM
      1    O      -64.9580  -84.5240  -15.9740 O.3     2  LIG2       -0.3886
      2    C      -62.5190  -80.7570  -15.0840 C.3     2  LIG2       -0.0289
      3    C      -63.4660  -80.0610  -14.1190 C.3     2  LIG2       -0.0284
      4    C      -63.9220  -80.3070  -15.5470 C.3     2  LIG2       -0.0319
      5    C      -62.0530  -82.2520  -15.0960 C.3     2  LIG2       -0.0294
      6    C      -63.0800  -83.4140  -15.0370 C.3     2  LIG2       -0.0090
      7    C      -65.0130  -81.3360  -15.9280 C.3     2  LIG2       -0.0468
      8    C      -60.8950  -82.6200  -14.1170 C.3     2  LIG2       -0.0404
      9    C      -63.8850  -83.6780  -16.3560 C.3     2  LIG2        0.0664
     10    C      -62.2700  -84.6010  -14.4880 C.3     2  LIG2       -0.0471
     11    C      -64.5390  -82.3960  -16.9430 C.3     2  LIG2       -0.0237
     12    C      -64.1690  -80.7440  -12.9210 C.3     2  LIG2       -0.0593
     13    C      -63.0920  -78.6080  -13.7630 C.3     2  LIG2       -0.0593
     14    C      -61.2870  -83.9740  -13.5030 C.3     2  LIG2       -0.0498
     15    C      -60.5400  -81.5770  -13.0390 C.3     2  LIG2       -0.0621
     16    C      -63.1040  -84.4150  -17.4710 C.3     2  LIG2       -0.0358
     17    H      -61.6910  -80.1400  -15.4400 H       2  LIG2        0.0312
     18    H      -63.9930  -79.4200  -16.1790 H       2  LIG2        0.0309
     19    H      -61.6010  -82.3500  -16.0840 H       2  LIG2        0.0310
     20    H      -63.7970  -83.2000  -14.2540 H       2  LIG2        0.0331
     21    H      -65.4820  -81.8070  -15.0670 H       2  LIG2        0.0269
     22    H      -65.8220  -80.7770  -16.4010 H       2  LIG2        0.0269
     23    H      -59.9880  -82.7780  -14.7050 H       2  LIG2        0.0301
     24    H      -62.9050  -85.3420  -14.0000 H       2  LIG2        0.0269
     25    H      -61.7130  -85.1120  -15.2720 H       2  LIG2        0.0269
     26    H      -65.3760  -82.6720  -17.5870 H       2  LIG2        0.0293
     27    H      -63.8320  -81.9090  -17.6160 H       2  LIG2        0.0293
     28    H      -65.0370  -80.1590  -12.6170 H       2  LIG2        0.0235
     29    H      -63.5090  -80.8000  -12.0570 H       2  LIG2        0.0235
     30    H      -64.5440  -81.7420  -13.0950 H       2  LIG2        0.0235
     31    H      -63.9740  -78.0340  -13.4740 H       2  LIG2        0.0235
     32    H      -62.6290  -78.0820  -14.6000 H       2  LIG2        0.0235
     33    H      -62.3860  -78.5780  -12.9340 H       2  LIG2        0.0235
     34    H      -60.4210  -84.6160  -13.3460 H       2  LIG2        0.0268
     35    H      -61.7690  -83.8380  -12.5330 H       2  LIG2        0.0268
     36    H      -61.3730  -81.3870  -12.3650 H       2  LIG2        0.0233
     37    H      -60.2420  -80.6270  -13.4830 H       2  LIG2        0.0233
     38    H      -59.7040  -81.9200  -12.4290 H       2  LIG2        0.0233
     39    H      -62.1970  -83.8760  -17.7480 H       2  LIG2        0.0257
     40    H      -63.7060  -84.5210  -18.3740 H       2  LIG2        0.0257
     41    H      -62.8100  -85.4220  -17.1760 H       2  LIG2        0.0257
     42    H      -64.5950  -85.3700  -15.6990 H       2  LIG2        0.2102
@<TRIPOS>BOND
     1    40    16    1
     2    39    16    1
     3    27    11    1
     4    26    11    1
     5    16    41    1
     6    16     9    1
     7    11     9    1
     8    11     7    1
     9    22     7    1
    10     9     1    1
    11     9     6    1
    12    18     4    1
    13    19     5    1
    14     1    42    1
    15     7     4    1
    16     7    21    1
    17     4     2    1
    18     4     3    1
    19    17     2    1
    20    25    10    1
    21     5     2    1
    22     5     6    1
    23     5     8    1
    24     2     3    1
    25     6    10    1
    26     6    20    1
    27    23     8    1
    28    32    13    1
    29    10    24    1
    30    10    14    1
    31     3    13    1
    32     3    12    1
    33     8    14    1
    34     8    15    1
    35    13    31    1
    36    13    33    1
    37    14    34    1
    38    14    35    1
    39    37    15    1
    40    30    12    1
    41    15    38    1
    42    15    36    1
    43    12    28    1
    44    12    29    1
@<TRIPOS>MOLECULE
11996452_10_run_13.pdb
 42 44 0 0 0
SMALL
GASTEIGER

@<TRIPOS>ATOM
      1    O      -67.2690  -89.3460  -11.6130 O.3     2  LIG2       -0.3886
      2    C      -70.0570  -88.8480   -8.0190 C.3     2  LIG2       -0.0289
      3    C      -70.1300  -87.3310   -7.9610 C.3     2  LIG2       -0.0284
      4    C      -68.7880  -88.0100   -7.7470 C.3     2  LIG2       -0.0319
      5    C      -70.2080  -89.7920   -9.2600 C.3     2  LIG2       -0.0294
      6    C      -69.3830  -89.5560  -10.5530 C.3     2  LIG2       -0.0090
      7    C      -67.6290  -87.9480   -8.7690 C.3     2  LIG2       -0.0468
      8    C      -71.6680  -90.1150   -9.7060 C.3     2  LIG2       -0.0404
      9    C      -67.8660  -89.9440  -10.4730 C.3     2  LIG2        0.0664
     10    C      -70.2040  -90.2550  -11.6510 C.3     2  LIG2       -0.0471
     11    C      -67.1420  -89.3330   -9.2410 C.3     2  LIG2       -0.0237
     12    C      -70.3790  -86.4090   -9.1790 C.3     2  LIG2       -0.0593
     13    C      -70.8100  -86.7530   -6.7040 C.3     2  LIG2       -0.0593
     14    C      -71.6580  -90.0400  -11.2410 C.3     2  LIG2       -0.0498
     15    C      -72.7870  -89.2500   -9.0920 C.3     2  LIG2       -0.0621
     16    C      -67.5660  -91.4610  -10.5470 C.3     2  LIG2       -0.0358
     17    H      -70.4710  -89.3620   -7.1490 H       2  LIG2        0.0312
     18    H      -68.4020  -87.9810   -6.7260 H       2  LIG2        0.0309
     19    H      -69.8340  -90.7440   -8.8790 H       2  LIG2        0.0310
     20    H      -69.4390  -88.5060  -10.8100 H       2  LIG2        0.0331
     21    H      -67.8360  -87.3010   -9.6190 H       2  LIG2        0.0269
     22    H      -66.7890  -87.4670   -8.2650 H       2  LIG2        0.0269
     23    H      -71.8890  -91.1480   -9.4290 H       2  LIG2        0.0301
     24    H      -70.0030  -89.8410  -12.6410 H       2  LIG2        0.0269
     25    H      -69.9980  -91.3240  -11.6960 H       2  LIG2        0.0269
     26    H      -66.0680  -89.2880   -9.4310 H       2  LIG2        0.0293
     27    H      -67.2350  -90.0170   -8.3950 H       2  LIG2        0.0293
     28    H      -70.0390  -85.3980   -8.9550 H       2  LIG2        0.0235
     29    H      -71.4410  -86.3390   -9.4090 H       2  LIG2        0.0235
     30    H      -69.8770  -86.6840  -10.0950 H       2  LIG2        0.0235
     31    H      -70.4480  -85.7460   -6.4870 H       2  LIG2        0.0235
     32    H      -70.6220  -87.3580   -5.8150 H       2  LIG2        0.0235
     33    H      -71.8910  -86.7000   -6.8330 H       2  LIG2        0.0235
     34    H      -72.3100  -90.7900  -11.6890 H       2  LIG2        0.0268
     35    H      -72.0010  -89.0640  -11.5880 H       2  LIG2        0.0268
     36    H      -72.6830  -88.1990   -9.3550 H       2  LIG2        0.0233
     37    H      -72.8020  -89.3250   -8.0050 H       2  LIG2        0.0233
     38    H      -73.7660  -89.5750   -9.4480 H       2  LIG2        0.0233
     39    H      -68.0820  -92.0110   -9.7600 H       2  LIG2        0.0257
     40    H      -66.4990  -91.6610  -10.4360 H       2  LIG2        0.0257
     41    H      -67.8630  -91.8960  -11.5010 H       2  LIG2        0.0257
     42    H      -67.4320  -89.9110  -12.3730 H       2  LIG2        0.2102
@<TRIPOS>BOND
     1    24    10    1
     2    42     1    1
     3    25    10    1
     4    34    14    1
     5    10    14    1
     6    10     6    1
     7     1     9    1
     8    35    14    1
     9    41    16    1
    10    14     8    1
    11    20     6    1
    12     6     9    1
    13     6     5    1
    14    16     9    1
    15    16    40    1
    16    16    39    1
    17     9    11    1
    18    30    12    1
    19     8    23    1
    20     8     5    1
    21     8    15    1
    22    21     7    1
    23    38    15    1
    24    26    11    1
    25    29    12    1
    26    36    15    1
    27     5    19    1
    28     5     2    1
    29    11     7    1
    30    11    27    1
    31    12    28    1
    32    12     3    1
    33    15    37    1
    34     7    22    1
    35     7     4    1
    36     2     3    1
    37     2     4    1
    38     2    17    1
    39     3     4    1
    40     3    13    1
    41     4    18    1
    42    33    13    1
    43    13    31    1
    44    13    32    1
@<TRIPOS>MOLECULE
11996452_10_run_14.pdb
 42 44 0 0 0
SMALL
GASTEIGER

@<TRIPOS>ATOM
      1    O      -66.8560  -89.1160   -5.9070 O.3     2  LIG2       -0.3886
      2    C      -70.7300  -89.2970   -8.3340 C.3     2  LIG2       -0.0289
      3    C      -70.9340  -87.8130   -8.6000 C.3     2  LIG2       -0.0284
      4    C      -70.9550  -88.3110   -7.1650 C.3     2  LIG2       -0.0319
      5    C      -69.4290  -90.1520   -8.4920 C.3     2  LIG2       -0.0294
      6    C      -68.0890  -89.7030   -7.8490 C.3     2  LIG2       -0.0090
      7    C      -69.8370  -88.0080   -6.1410 C.3     2  LIG2       -0.0468
      8    C      -69.0970  -90.6420   -9.9350 C.3     2  LIG2       -0.0404
      9    C      -67.9880  -89.8790   -6.2940 C.3     2  LIG2        0.0664
     10    C      -67.0150  -90.4220   -8.6830 C.3     2  LIG2       -0.0471
     11    C      -69.1960  -89.2700   -5.5290 C.3     2  LIG2       -0.0237
     12    C      -69.8360  -86.8440   -9.0980 C.3     2  LIG2       -0.0593
     13    C      -72.2980  -87.4360   -9.2110 C.3     2  LIG2       -0.0593
     14    C      -67.5810  -90.4480  -10.1000 C.3     2  LIG2       -0.0498
     15    C      -69.8910  -89.9930  -11.0870 C.3     2  LIG2       -0.0621
     16    C      -67.7460  -91.3270   -5.8060 C.3     2  LIG2       -0.0358
     17    H      -71.5850  -89.9290   -8.5800 H       2  LIG2        0.0312
     18    H      -71.9330  -88.3090   -6.6790 H       2  LIG2        0.0309
     19    H      -69.6830  -91.0690   -7.9560 H       2  LIG2        0.0310
     20    H      -67.9360  -88.6550   -8.0710 H       2  LIG2        0.0331
     21    H      -69.0740  -87.3320   -6.5210 H       2  LIG2        0.0269
     22    H      -70.3000  -87.4540   -5.3230 H       2  LIG2        0.0269
     23    H      -69.2980  -91.7140   -9.9880 H       2  LIG2        0.0301
     24    H      -66.0530  -89.9090   -8.6460 H       2  LIG2        0.0269
     25    H      -66.8530  -91.4450   -8.3450 H       2  LIG2        0.0269
     26    H      -68.9090  -89.0590   -4.4970 H       2  LIG2        0.0293
     27    H      -69.9810  -90.0230   -5.4400 H       2  LIG2        0.0293
     28    H      -70.1170  -85.8150   -8.8720 H       2  LIG2        0.0235
     29    H      -69.7150  -86.9070  -10.1790 H       2  LIG2        0.0235
     30    H      -68.8540  -86.9730   -8.6650 H       2  LIG2        0.0235
     31    H      -72.5710  -86.4090   -8.9650 H       2  LIG2        0.0235
     32    H      -73.1060  -88.0760   -8.8500 H       2  LIG2        0.0235
     33    H      -72.2780  -87.5260  -10.2970 H       2  LIG2        0.0235
     34    H      -67.1300  -91.2450  -10.6920 H       2  LIG2        0.0268
     35    H      -67.3600  -89.5050  -10.6050 H       2  LIG2        0.0268
     36    H      -69.7170  -88.9210  -11.1510 H       2  LIG2        0.0233
     37    H      -70.9640  -90.1540  -10.9740 H       2  LIG2        0.0233
     38    H      -69.6030  -90.4240  -12.0460 H       2  LIG2        0.0233
     39    H      -68.5260  -92.0050   -6.1570 H       2  LIG2        0.0257
     40    H      -67.7360  -91.3840   -4.7170 H       2  LIG2        0.0257
     41    H      -66.7890  -91.7250   -6.1440 H       2  LIG2        0.0257
     42    H      -66.0670  -89.5560   -6.2330 H       2  LIG2        0.2102
@<TRIPOS>BOND
     1    38    15    1
     2    36    15    1
     3    15    37    1
     4    15     8    1
     5    34    14    1
     6    35    14    1
     7    33    13    1
     8    29    12    1
     9    14     8    1
    10    14    10    1
    11    23     8    1
    12     8     5    1
    13    13    31    1
    14    13    32    1
    15    13     3    1
    16    12    28    1
    17    12    30    1
    18    12     3    1
    19    10    24    1
    20    10    25    1
    21    10     6    1
    22     3     2    1
    23     3     4    1
    24    17     2    1
    25     5     2    1
    26     5    19    1
    27     5     6    1
    28     2     4    1
    29    20     6    1
    30     6     9    1
    31     4    18    1
    32     4     7    1
    33    21     7    1
    34     9     1    1
    35     9    16    1
    36     9    11    1
    37    42     1    1
    38    39    16    1
    39    41    16    1
    40     7    11    1
    41     7    22    1
    42    16    40    1
    43    11    27    1
    44    11    26    1
