@<TRIPOS>MOLECULE
11996452_run_14.pdb
 42 44 0 0 0
SMALL
GASTEIGER

@<TRIPOS>ATOM
      1    O      -66.2890  -88.8560   -9.4290 O.3     2  LIG2       -0.3886
      2    C      -70.6700  -89.3730   -8.8170 C.3     2  LIG2       -0.0289
      3    C      -71.7700  -88.5050   -8.2190 C.3     2  LIG2       -0.0284
      4    C      -70.3550  -88.3470   -7.7170 C.3     2  LIG2       -0.0319
      5    C      -70.0730  -89.1390  -10.2360 C.3     2  LIG2       -0.0294
      6    C      -68.5110  -89.1940  -10.3180 C.3     2  LIG2       -0.0090
      7    C      -69.4140  -87.1860   -8.0910 C.3     2  LIG2       -0.0468
      8    C      -70.5620  -90.1570  -11.2950 C.3     2  LIG2       -0.0404
      9    C      -67.6460  -88.9530   -9.0250 C.3     2  LIG2        0.0664
     10    C      -68.1740  -90.4690  -11.1330 C.3     2  LIG2       -0.0471
     11    C      -67.9400  -87.6040   -8.2860 C.3     2  LIG2       -0.0237
     12    C      -72.4590  -87.3790   -9.0260 C.3     2  LIG2       -0.0593
     13    C      -72.7660  -89.2180   -7.2840 C.3     2  LIG2       -0.0593
     14    C      -69.4820  -91.2400  -11.3070 C.3     2  LIG2       -0.0498
     15    C      -71.9970  -90.6960  -11.1170 C.3     2  LIG2       -0.0621
     16    C      -67.6240  -90.1370   -8.0180 C.3     2  LIG2       -0.0358
     17    H      -70.6390  -90.4240   -8.5290 H       2  LIG2        0.0312
     18    H      -70.1650  -88.7010   -6.7020 H       2  LIG2        0.0309
     19    H      -70.3840  -88.1560  -10.5870 H       2  LIG2        0.0310
     20    H      -68.2470  -88.3630  -10.9790 H       2  LIG2        0.0331
     21    H      -69.7450  -86.6810   -8.9950 H       2  LIG2        0.0269
     22    H      -69.4670  -86.4250   -7.3110 H       2  LIG2        0.0269
     23    H      -70.5400  -89.6630  -12.2680 H       2  LIG2        0.0301
     24    H      -67.7830  -90.1870  -12.1130 H       2  LIG2        0.0269
     25    H      -67.4090  -91.0960  -10.6770 H       2  LIG2        0.0269
     26    H      -67.4660  -86.7800   -8.8260 H       2  LIG2        0.0293
     27    H      -67.4590  -87.6170   -7.3070 H       2  LIG2        0.0293
     28    H      -72.9140  -86.6500   -8.3540 H       2  LIG2        0.0235
     29    H      -73.2520  -87.7870   -9.6530 H       2  LIG2        0.0235
     30    H      -71.7960  -86.8210   -9.6820 H       2  LIG2        0.0235
     31    H      -73.2100  -88.5180   -6.5770 H       2  LIG2        0.0235
     32    H      -72.2880  -90.0090   -6.7030 H       2  LIG2        0.0235
     33    H      -73.5730  -89.6790   -7.8540 H       2  LIG2        0.0235
     34    H      -69.6260  -91.9380  -10.4800 H       2  LIG2        0.0268
     35    H      -69.4890  -91.8170  -12.2320 H       2  LIG2        0.0268
     36    H      -72.1070  -91.2830  -10.2050 H       2  LIG2        0.0233
     37    H      -72.2750  -91.3380  -11.9530 H       2  LIG2        0.0233
     38    H      -72.7190  -89.8790  -11.0790 H       2  LIG2        0.0233
     39    H      -68.5880  -90.3390   -7.5610 H       2  LIG2        0.0257
     40    H      -66.9360  -89.9450   -7.1920 H       2  LIG2        0.0257
     41    H      -67.2960  -91.0690   -8.4760 H       2  LIG2        0.0257
     42    H      -65.7560  -88.6590   -8.6550 H       2  LIG2        0.2102
@<TRIPOS>BOND
     1    23     8    1
     2    35    14    1
     3    24    10    1
     4    37    15    1
     5    14     8    1
     6    14    10    1
     7    14    34    1
     8     8    15    1
     9     8     5    1
    10    10    25    1
    11    10     6    1
    12    15    38    1
    13    15    36    1
    14    20     6    1
    15    19     5    1
    16     6     5    1
    17     6     9    1
    18     5     2    1
    19    30    12    1
    20    29    12    1
    21     1     9    1
    22     1    42    1
    23    12    28    1
    24    12     3    1
    25     9    11    1
    26     9    16    1
    27    21     7    1
    28    26    11    1
    29     2    17    1
    30     2     3    1
    31     2     4    1
    32    41    16    1
    33    11     7    1
    34    11    27    1
    35     3     4    1
    36     3    13    1
    37     7     4    1
    38     7    22    1
    39    16    39    1
    40    16    40    1
    41    33    13    1
    42     4    18    1
    43    13    32    1
    44    13    31    1
@<TRIPOS>MOLECULE
11996452_run_17.pdb
 42 44 0 0 0
SMALL
GASTEIGER

@<TRIPOS>ATOM
      1    O      -66.2390  -89.3340   -9.1790 O.3     2  LIG2       -0.3886
      2    C      -70.5320  -88.6350   -8.2190 C.3     2  LIG2       -0.0289
      3    C      -71.8330  -88.7770   -8.9980 C.3     2  LIG2       -0.0284
      4    C      -70.5580  -88.4690   -9.7460 C.3     2  LIG2       -0.0319
      5    C      -69.7560  -89.8460   -7.6220 C.3     2  LIG2       -0.0294
      6    C      -68.2110  -89.8360   -7.8740 C.3     2  LIG2       -0.0090
      7    C      -69.7570  -89.4900  -10.5760 C.3     2  LIG2       -0.0468
      8    C      -69.9070  -89.9890   -6.0880 C.3     2  LIG2       -0.0404
      9    C      -67.6140  -88.9980   -9.0640 C.3     2  LIG2        0.0664
     10    C      -67.5570  -89.6090   -6.4870 C.3     2  LIG2       -0.0471
     11    C      -68.2240  -89.3300  -10.4670 C.3     2  LIG2       -0.0237
     12    C      -72.5450  -90.1400   -9.1660 C.3     2  LIG2       -0.0593
     13    C      -72.8460  -87.6270   -8.8440 C.3     2  LIG2       -0.0593
     14    C      -68.6870  -89.2640   -5.5170 C.3     2  LIG2       -0.0498
     15    C      -71.2530  -89.5360   -5.4850 C.3     2  LIG2       -0.0621
     16    C      -67.5740  -87.4610   -8.8320 C.3     2  LIG2       -0.0358
     17    H      -70.3890  -87.7280   -7.6300 H       2  LIG2        0.0312
     18    H      -70.4830  -87.4660  -10.1700 H       2  LIG2        0.0309
     19    H      -70.1510  -90.7620   -8.0580 H       2  LIG2        0.0310
     20    H      -67.9740  -90.8730   -8.1270 H       2  LIG2        0.0331
     21    H      -70.0100  -90.5120  -10.3020 H       2  LIG2        0.0269
     22    H      -70.0500  -89.4010  -11.6230 H       2  LIG2        0.0269
     23    H      -69.8030  -91.0480   -5.8410 H       2  LIG2        0.0301
     24    H      -67.0610  -90.5240   -6.1590 H       2  LIG2        0.0269
     25    H      -66.7900  -88.8350   -6.4820 H       2  LIG2        0.0269
     26    H      -67.8000  -90.2660  -10.8390 H       2  LIG2        0.0293
     27    H      -67.9110  -88.5700  -11.1860 H       2  LIG2        0.0293
     28    H      -73.2080  -90.1200  -10.0320 H       2  LIG2        0.0235
     29    H      -73.1560  -90.3640   -8.2920 H       2  LIG2        0.0235
     30    H      -71.8780  -90.9850   -9.3090 H       2  LIG2        0.0235
     31    H      -73.5000  -87.5610   -9.7130 H       2  LIG2        0.0235
     32    H      -72.3550  -86.6590   -8.7340 H       2  LIG2        0.0235
     33    H      -73.4720  -87.7740   -7.9630 H       2  LIG2        0.0235
     34    H      -68.8550  -88.1860   -5.4940 H       2  LIG2        0.0268
     35    H      -68.4560  -89.5850   -4.5010 H       2  LIG2        0.0268
     36    H      -71.4180  -88.4650   -5.6060 H       2  LIG2        0.0233
     37    H      -71.2910  -89.7530   -4.4180 H       2  LIG2        0.0233
     38    H      -72.0870  -90.0580   -5.9550 H       2  LIG2        0.0233
     39    H      -68.5580  -87.0060   -8.7600 H       2  LIG2        0.0257
     40    H      -67.0660  -86.9470   -9.6510 H       2  LIG2        0.0257
     41    H      -67.0390  -87.1890   -7.9240 H       2  LIG2        0.0257
     42    H      -65.7770  -88.9870   -8.4130 H       2  LIG2        0.2102
@<TRIPOS>BOND
     1    22     7    1
     2    27    11    1
     3    26    11    1
     4     7    11    1
     5     7    21    1
     6     7     4    1
     7    11     9    1
     8    18     4    1
     9    28    12    1
    10     4     3    1
    11     4     2    1
    12    31    13    1
    13    40    16    1
    14    30    12    1
    15     1     9    1
    16     1    42    1
    17    12     3    1
    18    12    29    1
    19     9    16    1
    20     9     6    1
    21     3    13    1
    22     3     2    1
    23    13    32    1
    24    13    33    1
    25    16    39    1
    26    16    41    1
    27     2    17    1
    28     2     5    1
    29    20     6    1
    30    19     5    1
    31     6     5    1
    32     6    10    1
    33     5     8    1
    34    10    25    1
    35    10    24    1
    36    10    14    1
    37     8    23    1
    38     8    14    1
    39     8    15    1
    40    38    15    1
    41    36    15    1
    42    14    34    1
    43    14    35    1
    44    15    37    1
@<TRIPOS>MOLECULE
11996452_run_10.pdb
 42 44 0 0 0
SMALL
GASTEIGER

@<TRIPOS>ATOM
      1    O      -70.7050  -85.6930   -6.4290 O.3     2  LIG2       -0.3886
      2    C      -69.2290  -89.5670   -8.0560 C.3     2  LIG2       -0.0289
      3    C      -68.5570  -89.9880   -9.3570 C.3     2  LIG2       -0.0284
      4    C      -69.4880  -88.7990   -9.3610 C.3     2  LIG2       -0.0319
      5    C      -68.4780  -88.8340   -6.9050 C.3     2  LIG2       -0.0294
      6    C      -69.2320  -87.6050   -6.2960 C.3     2  LIG2       -0.0090
      7    C      -69.0340  -87.3270   -9.4100 C.3     2  LIG2       -0.0468
      8    C      -68.1550  -89.7410   -5.6930 C.3     2  LIG2       -0.0404
      9    C      -70.3480  -86.8740   -7.1320 C.3     2  LIG2        0.0664
     10    C      -69.6240  -88.0200   -4.8550 C.3     2  LIG2       -0.0471
     11    C      -69.8850  -86.3740   -8.5410 C.3     2  LIG2       -0.0237
     12    C      -67.0390  -89.8120   -9.5930 C.3     2  LIG2       -0.0593
     13    C      -69.0810  -91.2850  -10.0030 C.3     2  LIG2       -0.0593
     14    C      -69.3170  -89.5110   -4.7260 C.3     2  LIG2       -0.0498
     15    C      -67.8730  -91.2260   -6.0030 C.3     2  LIG2       -0.0621
     16    C      -71.6980  -87.6370   -7.2350 C.3     2  LIG2       -0.0358
     17    H      -70.0440  -90.1860   -7.6820 H       2  LIG2        0.0312
     18    H      -70.4400  -88.9380   -9.8760 H       2  LIG2        0.0309
     19    H      -67.5230  -88.4750   -7.2850 H       2  LIG2        0.0310
     20    H      -68.4520  -86.8490   -6.1660 H       2  LIG2        0.0331
     21    H      -67.9940  -87.2210   -9.1090 H       2  LIG2        0.0269
     22    H      -69.0610  -86.9840  -10.4450 H       2  LIG2        0.0269
     23    H      -67.2520  -89.3520   -5.2170 H       2  LIG2        0.0301
     24    H      -69.0250  -87.4600   -4.1350 H       2  LIG2        0.0269
     25    H      -70.6640  -87.8130   -4.6030 H       2  LIG2        0.0269
     26    H      -69.2910  -85.4640   -8.4300 H       2  LIG2        0.0293
     27    H      -70.7590  -86.0750   -9.1230 H       2  LIG2        0.0293
     28    H      -66.8170  -89.8010  -10.6610 H       2  LIG2        0.0235
     29    H      -66.4830  -90.6380   -9.1510 H       2  LIG2        0.0235
     30    H      -66.6200  -88.8960   -9.1840 H       2  LIG2        0.0235
     31    H      -68.9040  -91.2870  -11.0790 H       2  LIG2        0.0235
     32    H      -70.1540  -91.4150   -9.8510 H       2  LIG2        0.0235
     33    H      -68.5860  -92.1590   -9.5800 H       2  LIG2        0.0235
     34    H      -70.1840  -90.1060   -5.0180 H       2  LIG2        0.0268
     35    H      -69.0600  -89.7820   -3.7020 H       2  LIG2        0.0268
     36    H      -68.7470  -91.7360   -6.4100 H       2  LIG2        0.0233
     37    H      -67.5760  -91.7600   -5.1000 H       2  LIG2        0.0233
     38    H      -67.0610  -91.3280   -6.7240 H       2  LIG2        0.0233
     39    H      -71.6320  -88.5670   -7.7900 H       2  LIG2        0.0257
     40    H      -72.4560  -87.0380   -7.7450 H       2  LIG2        0.0257
     41    H      -72.1140  -87.8860   -6.2600 H       2  LIG2        0.0257
     42    H      -71.2890  -85.1740   -6.9860 H       2  LIG2        0.2102
@<TRIPOS>BOND
     1    31    13    1
     2    28    12    1
     3    22     7    1
     4    13    32    1
     5    13    33    1
     6    13     3    1
     7    18     4    1
     8    12     3    1
     9    12    30    1
    10    12    29    1
    11     7     4    1
    12     7    21    1
    13     7    11    1
    14     4     3    1
    15     4     2    1
    16     3     2    1
    17    27    11    1
    18    11    26    1
    19    11     9    1
    20     2    17    1
    21     2     5    1
    22    39    16    1
    23    40    16    1
    24    19     5    1
    25    16     9    1
    26    16    41    1
    27     9     1    1
    28     9     6    1
    29    42     1    1
    30     5     6    1
    31     5     8    1
    32    38    15    1
    33    36    15    1
    34     6    20    1
    35     6    10    1
    36    15     8    1
    37    15    37    1
    38     8    23    1
    39     8    14    1
    40    34    14    1
    41    10    14    1
    42    10    25    1
    43    10    24    1
    44    14    35    1
@<TRIPOS>MOLECULE
11996452_run_24.pdb
 42 44 0 0 0
SMALL
GASTEIGER

@<TRIPOS>ATOM
      1    O      -66.9630  -91.2720   -6.7810 O.3     2  LIG2       -0.3886
      2    C      -70.1060  -88.1190   -6.6570 C.3     2  LIG2       -0.0289
      3    C      -70.7370  -87.2880   -5.5460 C.3     2  LIG2       -0.0284
      4    C      -70.2020  -88.6630   -5.2230 C.3     2  LIG2       -0.0319
      5    C      -68.6930  -87.8300   -7.2430 C.3     2  LIG2       -0.0294
      6    C      -67.7750  -89.0860   -7.4180 C.3     2  LIG2       -0.0090
      7    C      -68.8760  -88.9410   -4.4890 C.3     2  LIG2       -0.0468
      8    C      -68.7200  -87.1620   -8.6390 C.3     2  LIG2       -0.0404
      9    C      -68.0530  -90.3870   -6.5750 C.3     2  LIG2        0.0664
     10    C      -67.6180  -89.2870   -8.9460 C.3     2  LIG2       -0.0471
     11    C      -68.1000  -90.1630   -5.0270 C.3     2  LIG2       -0.0237
     12    C      -70.0580  -86.0180   -4.9840 C.3     2  LIG2       -0.0593
     13    C      -72.2680  -87.1320   -5.6020 C.3     2  LIG2       -0.0593
     14    C      -68.5990  -88.3290   -9.6210 C.3     2  LIG2       -0.0498
     15    C      -69.9040  -86.2150   -8.9240 C.3     2  LIG2       -0.0621
     16    C      -69.2740  -91.2270   -7.0460 C.3     2  LIG2       -0.0358
     17    H      -70.7710  -88.5670   -7.3960 H       2  LIG2        0.0312
     18    H      -70.9490  -89.4260   -4.9960 H       2  LIG2        0.0309
     19    H      -68.1750  -87.1390   -6.5800 H       2  LIG2        0.0310
     20    H      -66.7910  -88.7500   -7.0780 H       2  LIG2        0.0331
     21    H      -68.2150  -88.0780   -4.5230 H       2  LIG2        0.0269
     22    H      -69.0860  -89.0910   -3.4290 H       2  LIG2        0.0269
     23    H      -67.8150  -86.5580   -8.7370 H       2  LIG2        0.0301
     24    H      -66.5990  -89.0390   -9.2480 H       2  LIG2        0.0269
     25    H      -67.7850  -90.3120   -9.2770 H       2  LIG2        0.0269
     26    H      -67.0830  -90.0630   -4.6400 H       2  LIG2        0.0293
     27    H      -68.5000  -91.0580   -4.5450 H       2  LIG2        0.0293
     28    H      -70.4360  -85.7920   -3.9860 H       2  LIG2        0.0235
     29    H      -70.2690  -85.1570   -5.6180 H       2  LIG2        0.0235
     30    H      -68.9760  -86.0840   -4.8940 H       2  LIG2        0.0235
     31    H      -72.6790  -86.9400   -4.6110 H       2  LIG2        0.0235
     32    H      -72.7590  -88.0260   -5.9890 H       2  LIG2        0.0235
     33    H      -72.5520  -86.3020   -6.2500 H       2  LIG2        0.0235
     34    H      -69.5670  -88.8120   -9.7660 H       2  LIG2        0.0268
     35    H      -68.2400  -88.0080  -10.5990 H       2  LIG2        0.0268
     36    H      -70.8590  -86.7400   -8.9320 H       2  LIG2        0.0233
     37    H      -69.7890  -85.7330   -9.8950 H       2  LIG2        0.0233
     38    H      -69.9630  -85.4260   -8.1730 H       2  LIG2        0.0233
     39    H      -70.2260  -90.7190   -6.9230 H       2  LIG2        0.0257
     40    H      -69.3570  -92.1590   -6.4830 H       2  LIG2        0.0257
     41    H      -69.2070  -91.5100   -8.0950 H       2  LIG2        0.0257
     42    H      -66.1670  -90.8560   -6.4450 H       2  LIG2        0.2102
@<TRIPOS>BOND
     1    35    14    1
     2    37    15    1
     3    34    14    1
     4    14    10    1
     5    14     8    1
     6    25    10    1
     7    24    10    1
     8    10     6    1
     9    36    15    1
    10    15     8    1
    11    15    38    1
    12    23     8    1
    13     8     5    1
    14    41    16    1
    15     6     5    1
    16     6    20    1
    17     6     9    1
    18    17     2    1
    19     5     2    1
    20     5    19    1
    21    16    39    1
    22    16     9    1
    23    16    40    1
    24     1     9    1
    25     1    42    1
    26     2     3    1
    27     2     4    1
    28     9    11    1
    29    33    13    1
    30    32    13    1
    31    29    12    1
    32    13     3    1
    33    13    31    1
    34     3     4    1
    35     3    12    1
    36     4    18    1
    37     4     7    1
    38    11    26    1
    39    11    27    1
    40    11     7    1
    41    12    30    1
    42    12    28    1
    43    21     7    1
    44     7    22    1
@<TRIPOS>MOLECULE
11996452_run_12.pdb
 42 44 0 0 0
SMALL
GASTEIGER

@<TRIPOS>ATOM
      1    O      -66.4810  -89.2070   -9.1870 O.3     2  LIG2       -0.3886
      2    C      -70.3870  -89.2980   -7.0510 C.3     2  LIG2       -0.0289
      3    C      -71.0080  -90.2180   -6.0070 C.3     2  LIG2       -0.0284
      4    C      -69.9940  -90.7820   -6.9730 C.3     2  LIG2       -0.0319
      5    C      -69.3060  -88.2300   -6.7140 C.3     2  LIG2       -0.0294
      6    C      -68.0830  -88.1890   -7.6910 C.3     2  LIG2       -0.0090
      7    C      -68.5270  -91.1000   -6.6230 C.3     2  LIG2       -0.0468
      8    C      -69.8460  -86.7790   -6.6940 C.3     2  LIG2       -0.0404
      9    C      -67.7330  -89.4510   -8.5650 C.3     2  LIG2        0.0664
     10    C      -68.1950  -86.8440   -8.4540 C.3     2  LIG2       -0.0471
     11    C      -67.5230  -90.7710   -7.7500 C.3     2  LIG2       -0.0237
     12    C      -70.6840  -90.0860   -4.5000 C.3     2  LIG2       -0.0593
     13    C      -72.4800  -90.6090   -6.2350 C.3     2  LIG2       -0.0593
     14    C      -69.5560  -86.2470   -8.0990 C.3     2  LIG2       -0.0498
     15    C      -71.3080  -86.5970   -6.2370 C.3     2  LIG2       -0.0621
     16    C      -68.6780  -89.6970   -9.7750 C.3     2  LIG2       -0.0358
     17    H      -71.0070  -88.9990   -7.8970 H       2  LIG2        0.0312
     18    H      -70.3810  -91.4710   -7.7250 H       2  LIG2        0.0309
     19    H      -68.9180  -88.4280   -5.7160 H       2  LIG2        0.0310
     20    H      -67.2180  -88.0660   -7.0340 H       2  LIG2        0.0331
     21    H      -68.2110  -90.5770   -5.7240 H       2  LIG2        0.0269
     22    H      -68.4470  -92.1590   -6.3740 H       2  LIG2        0.0269
     23    H      -69.2340  -86.2050   -5.9950 H       2  LIG2        0.0301
     24    H      -67.4030  -86.1680   -8.1270 H       2  LIG2        0.0269
     25    H      -68.0800  -86.9370   -9.5330 H       2  LIG2        0.0269
     26    H      -66.5390  -90.7550   -7.2750 H       2  LIG2        0.0293
     27    H      -67.4940  -91.6180   -8.4370 H       2  LIG2        0.0293
     28    H      -70.8970  -91.0220   -3.9810 H       2  LIG2        0.0235
     29    H      -71.2960  -89.3110   -4.0410 H       2  LIG2        0.0235
     30    H      -69.6480  -89.8410   -4.2790 H       2  LIG2        0.0235
     31    H      -72.7120  -91.5590   -5.7550 H       2  LIG2        0.0235
     32    H      -72.7180  -90.7130   -7.2940 H       2  LIG2        0.0235
     33    H      -73.1520  -89.8530   -5.8260 H       2  LIG2        0.0235
     34    H      -70.3170  -86.5850   -8.8040 H       2  LIG2        0.0268
     35    H      -69.5380  -85.1570   -8.1300 H       2  LIG2        0.0268
     36    H      -72.0150  -87.0670   -6.9210 H       2  LIG2        0.0233
     37    H      -71.5660  -85.5390   -6.1780 H       2  LIG2        0.0233
     38    H      -71.4640  -87.0270   -5.2470 H       2  LIG2        0.0233
     39    H      -69.6950  -89.9460   -9.4890 H       2  LIG2        0.0257
     40    H      -68.3280  -90.5270  -10.3910 H       2  LIG2        0.0257
     41    H      -68.7440  -88.8340  -10.4360 H       2  LIG2        0.0257
     42    H      -65.8540  -88.9350   -8.5130 H       2  LIG2        0.2102
@<TRIPOS>BOND
     1    41    16    1
     2    40    16    1
     3    16    39    1
     4    16     9    1
     5    25    10    1
     6     1     9    1
     7     1    42    1
     8    34    14    1
     9     9    11    1
    10     9     6    1
    11    10    24    1
    12    10    14    1
    13    10     6    1
    14    27    11    1
    15    35    14    1
    16    14     8    1
    17    17     2    1
    18    11    26    1
    19    11     7    1
    20    18     4    1
    21     6    20    1
    22     6     5    1
    23    32    13    1
    24     2     4    1
    25     2     5    1
    26     2     3    1
    27     4     7    1
    28     4     3    1
    29    36    15    1
    30     5     8    1
    31     5    19    1
    32     8    15    1
    33     8    23    1
    34     7    22    1
    35     7    21    1
    36    15    37    1
    37    15    38    1
    38    13     3    1
    39    13    33    1
    40    13    31    1
    41     3    12    1
    42    12    30    1
    43    12    29    1
    44    12    28    1
@<TRIPOS>MOLECULE
11996452_run_16.pdb
 42 44 0 0 0
SMALL
GASTEIGER

@<TRIPOS>ATOM
      1    O      -70.1490  -89.1590  -11.8000 O.3     2  LIG2       -0.3886
      2    C      -69.4220  -89.3850   -7.4120 C.3     2  LIG2       -0.0289
      3    C      -68.1840  -89.2760   -6.5320 C.3     2  LIG2       -0.0284
      4    C      -68.0390  -89.7910   -7.9440 C.3     2  LIG2       -0.0319
      5    C      -70.1270  -88.1540   -8.0530 C.3     2  LIG2       -0.0294
      6    C      -70.5060  -88.3150   -9.5630 C.3     2  LIG2       -0.0090
      7    C      -67.4750  -88.9750   -9.1230 C.3     2  LIG2       -0.0468
      8    C      -71.4500  -87.7570   -7.3530 C.3     2  LIG2       -0.0404
      9    C      -69.7540  -89.3730  -10.4540 C.3     2  LIG2        0.0664
     10    C      -72.0540  -88.3640   -9.6090 C.3     2  LIG2       -0.0471
     11    C      -68.1960  -89.2260  -10.4670 C.3     2  LIG2       -0.0237
     12    C      -67.5880  -87.9100   -6.1170 C.3     2  LIG2       -0.0593
     13    C      -68.0630  -90.3110   -5.3970 C.3     2  LIG2       -0.0593
     14    C      -72.5360  -88.4670   -8.1620 C.3     2  LIG2       -0.0498
     15    C      -71.5240  -88.0100   -5.8330 C.3     2  LIG2       -0.0621
     16    C      -70.1640  -90.8520  -10.2050 C.3     2  LIG2       -0.0358
     17    H      -70.1230  -90.1940   -7.2040 H       2  LIG2        0.0312
     18    H      -67.8010  -90.8510   -8.0450 H       2  LIG2        0.0309
     19    H      -69.4650  -87.2930   -7.9730 H       2  LIG2        0.0310
     20    H      -70.2440  -87.3510  -10.0100 H       2  LIG2        0.0331
     21    H      -67.5040  -87.9070   -8.9190 H       2  LIG2        0.0269
     22    H      -66.4160  -89.2090   -9.2390 H       2  LIG2        0.0269
     23    H      -71.5900  -86.6830   -7.4910 H       2  LIG2        0.0301
     24    H      -72.4390  -87.4470  -10.0580 H       2  LIG2        0.0269
     25    H      -72.4520  -89.1800  -10.2120 H       2  LIG2        0.0269
     26    H      -67.9120  -88.3940  -11.1160 H       2  LIG2        0.0293
     27    H      -67.7530  -90.1110  -10.9280 H       2  LIG2        0.0293
     28    H      -66.5410  -88.0200   -5.8350 H       2  LIG2        0.0235
     29    H      -68.1190  -87.5050   -5.2560 H       2  LIG2        0.0235
     30    H      -67.6190  -87.1480   -6.8920 H       2  LIG2        0.0235
     31    H      -67.0210  -90.4670   -5.1180 H       2  LIG2        0.0235
     32    H      -68.4720  -91.2820   -5.6820 H       2  LIG2        0.0235
     33    H      -68.6030  -89.9810   -4.5090 H       2  LIG2        0.0235
     34    H      -72.6190  -89.5130   -7.8610 H       2  LIG2        0.0268
     35    H      -73.5150  -88.0060   -8.0310 H       2  LIG2        0.0268
     36    H      -71.4770  -89.0720   -5.5890 H       2  LIG2        0.0233
     37    H      -72.4570  -87.6230   -5.4220 H       2  LIG2        0.0233
     38    H      -70.7060  -87.5110   -5.3120 H       2  LIG2        0.0233
     39    H      -69.8980  -91.2180   -9.2180 H       2  LIG2        0.0257
     40    H      -69.6780  -91.5250  -10.9140 H       2  LIG2        0.0257
     41    H      -71.2350  -91.0140  -10.3170 H       2  LIG2        0.0257
     42    H      -70.2890  -88.2180  -11.9290 H       2  LIG2        0.2102
@<TRIPOS>BOND
     1    42     1    1
     2     1     9    1
     3    26    11    1
     4    27    11    1
     5    40    16    1
     6    11     9    1
     7    11     7    1
     8     9    16    1
     9     9     6    1
    10    41    16    1
    11    25    10    1
    12    16    39    1
    13    24    10    1
    14    20     6    1
    15    10     6    1
    16    10    14    1
    17     6     5    1
    18    22     7    1
    19     7    21    1
    20     7     4    1
    21    14    35    1
    22    14    34    1
    23    14     8    1
    24     5    19    1
    25     5     2    1
    26     5     8    1
    27    18     4    1
    28     4     2    1
    29     4     3    1
    30    23     8    1
    31     2    17    1
    32     2     3    1
    33     8    15    1
    34    30    12    1
    35     3    12    1
    36     3    13    1
    37    12    28    1
    38    12    29    1
    39    15    36    1
    40    15    37    1
    41    15    38    1
    42    32    13    1
    43    13    31    1
    44    13    33    1
@<TRIPOS>MOLECULE
11996452_run_10.pdb
 42 44 0 0 0
SMALL
GASTEIGER

@<TRIPOS>ATOM
      1    O      -66.7890  -88.5660   -8.9840 O.3     2  LIG2       -0.3886
      2    C      -70.8080  -88.9160   -7.0970 C.3     2  LIG2       -0.0289
      3    C      -71.4560  -88.3180   -5.8550 C.3     2  LIG2       -0.0284
      4    C      -69.9600  -88.5280   -5.8750 C.3     2  LIG2       -0.0319
      5    C      -70.6020  -88.1220   -8.4200 C.3     2  LIG2       -0.0294
      6    C      -69.1860  -88.2710   -9.0730 C.3     2  LIG2       -0.0090
      7    C      -68.9180  -87.4100   -6.0730 C.3     2  LIG2       -0.0468
      8    C      -71.5970  -88.5070   -9.5420 C.3     2  LIG2       -0.0404
      9    C      -67.9580  -88.7140   -8.1940 C.3     2  LIG2        0.0664
     10    C      -69.4060  -89.0660  -10.3850 C.3     2  LIG2       -0.0471
     11    C      -67.7030  -87.8240   -6.9320 C.3     2  LIG2       -0.0237
     12    C      -72.0600  -86.8940   -5.8480 C.3     2  LIG2       -0.0593
     13    C      -72.2830  -89.2860   -4.9870 C.3     2  LIG2       -0.0593
     14    C      -70.8520  -89.5590  -10.3660 C.3     2  LIG2       -0.0498
     15    C      -73.0070  -88.9390   -9.0890 C.3     2  LIG2       -0.0621
     16    C      -67.9310  -90.2230   -7.8160 C.3     2  LIG2       -0.0358
     17    H      -70.9450  -89.9830   -7.2780 H       2  LIG2        0.0312
     18    H      -69.5790  -89.3170   -5.2250 H       2  LIG2        0.0309
     19    H      -70.7580  -87.0640   -8.2190 H       2  LIG2        0.0310
     20    H      -68.9330  -87.2580   -9.3990 H       2  LIG2        0.0331
     21    H      -69.3640  -86.5250   -6.5210 H       2  LIG2        0.0269
     22    H      -68.5660  -87.0810   -5.0940 H       2  LIG2        0.0269
     23    H      -71.7360  -87.6310  -10.1790 H       2  LIG2        0.0301
     24    H      -69.2550  -88.4090  -11.2430 H       2  LIG2        0.0269
     25    H      -68.7130  -89.8960  -10.5200 H       2  LIG2        0.0269
     26    H      -67.2220  -86.8900   -7.2340 H       2  LIG2        0.0293
     27    H      -66.9800  -88.3190   -6.2810 H       2  LIG2        0.0293
     28    H      -72.1190  -86.5090   -4.8290 H       2  LIG2        0.0235
     29    H      -73.0710  -86.9040   -6.2540 H       2  LIG2        0.0235
     30    H      -71.4980  -86.1610   -6.4210 H       2  LIG2        0.0235
     31    H      -72.3300  -88.9440   -3.9540 H       2  LIG2        0.0235
     32    H      -71.8610  -90.2920   -4.9780 H       2  LIG2        0.0235
     33    H      -73.3040  -89.3680   -5.3610 H       2  LIG2        0.0235
     34    H      -70.9160  -90.5380   -9.8890 H       2  LIG2        0.0268
     35    H      -71.2580  -89.6540  -11.3730 H       2  LIG2        0.0268
     36    H      -72.9890  -89.8620   -8.5080 H       2  LIG2        0.0233
     37    H      -73.6550  -89.1090   -9.9490 H       2  LIG2        0.0233
     38    H      -73.4750  -88.1680   -8.4750 H       2  LIG2        0.0233
     39    H      -68.7440  -90.5230   -7.1630 H       2  LIG2        0.0257
     40    H      -67.0110  -90.4840   -7.2880 H       2  LIG2        0.0257
     41    H      -67.9760  -90.8730   -8.6880 H       2  LIG2        0.0257
     42    H      -66.0240  -88.6270   -8.4080 H       2  LIG2        0.2102
@<TRIPOS>BOND
     1    35    14    1
     2    24    10    1
     3    25    10    1
     4    10    14    1
     5    10     6    1
     6    14    34    1
     7    14     8    1
     8    23     8    1
     9    37    15    1
    10     8    15    1
    11     8     5    1
    12    20     6    1
    13    15    36    1
    14    15    38    1
    15     6     5    1
    16     6     9    1
    17     1    42    1
    18     1     9    1
    19    41    16    1
    20     5    19    1
    21     5     2    1
    22     9    16    1
    23     9    11    1
    24    16    40    1
    25    16    39    1
    26    17     2    1
    27    26    11    1
    28     2     4    1
    29     2     3    1
    30    11    27    1
    31    11     7    1
    32    21     7    1
    33    30    12    1
    34    29    12    1
    35     7     4    1
    36     7    22    1
    37     4     3    1
    38     4    18    1
    39     3    12    1
    40     3    13    1
    41    12    28    1
    42    33    13    1
    43    13    32    1
    44    13    31    1
@<TRIPOS>MOLECULE
11996452_run_17.pdb
 42 44 0 0 0
SMALL
GASTEIGER

@<TRIPOS>ATOM
      1    O      -67.7890  -90.3410  -12.4520 O.3     2  LIG2       -0.3886
      2    C      -69.7850  -89.3130   -8.6050 C.3     2  LIG2       -0.0289
      3    C      -69.5890  -88.2180   -7.5640 C.3     2  LIG2       -0.0284
      4    C      -68.4040  -88.6770   -8.3800 C.3     2  LIG2       -0.0319
      5    C      -70.4920  -89.0770   -9.9720 C.3     2  LIG2       -0.0294
      6    C      -69.7590  -89.6850  -11.2150 C.3     2  LIG2       -0.0090
      7    C      -67.7930  -87.8960   -9.5590 C.3     2  LIG2       -0.0468
      8    C      -71.9290  -89.6490  -10.0400 C.3     2  LIG2       -0.0404
      9    C      -68.2190  -90.0010  -11.1420 C.3     2  LIG2        0.0664
     10    C      -70.6660  -90.8360  -11.7200 C.3     2  LIG2       -0.0471
     11    C      -67.3220  -88.7850  -10.7310 C.3     2  LIG2       -0.0237
     12    C      -70.1780  -86.7990   -7.7440 C.3     2  LIG2       -0.0593
     13    C      -69.6360  -88.6650   -6.0910 C.3     2  LIG2       -0.0593
     14    C      -71.7570  -91.0340  -10.6670 C.3     2  LIG2       -0.0498
     15    C      -72.7310  -89.6470   -8.7220 C.3     2  LIG2       -0.0621
     16    C      -67.8440  -91.2640  -10.3160 C.3     2  LIG2       -0.0358
     17    H      -69.9170  -90.3350   -8.2490 H       2  LIG2        0.0312
     18    H      -67.6430  -89.2440   -7.8410 H       2  LIG2        0.0309
     19    H      -70.5790  -88.0040  -10.1380 H       2  LIG2        0.0310
     20    H      -69.8400  -88.9090  -11.9810 H       2  LIG2        0.0331
     21    H      -68.4890  -87.1590   -9.9520 H       2  LIG2        0.0269
     22    H      -66.9460  -87.3130   -9.1930 H       2  LIG2        0.0269
     23    H      -72.4980  -89.0400  -10.7450 H       2  LIG2        0.0301
     24    H      -71.1230  -90.5550  -12.6710 H       2  LIG2        0.0269
     25    H      -70.1340  -91.7680  -11.9090 H       2  LIG2        0.0269
     26    H      -67.2020  -88.1130  -11.5840 H       2  LIG2        0.0293
     27    H      -66.3150  -89.1400  -10.5040 H       2  LIG2        0.0293
     28    H      -69.6360  -86.0800   -7.1280 H       2  LIG2        0.0235
     29    H      -71.2220  -86.7750   -7.4340 H       2  LIG2        0.0235
     30    H      -70.1430  -86.4190   -8.7620 H       2  LIG2        0.0235
     31    H      -69.0720  -87.9830   -5.4560 H       2  LIG2        0.0235
     32    H      -69.2150  -89.6620   -5.9510 H       2  LIG2        0.0235
     33    H      -70.6630  -88.6940   -5.7240 H       2  LIG2        0.0235
     34    H      -71.4370  -91.7600   -9.9180 H       2  LIG2        0.0268
     35    H      -72.6820  -91.4020  -11.1110 H       2  LIG2        0.0268
     36    H      -72.2880  -90.2990   -7.9680 H       2  LIG2        0.0233
     37    H      -73.7520  -89.9900   -8.8900 H       2  LIG2        0.0233
     38    H      -72.7900  -88.6420   -8.3020 H       2  LIG2        0.0233
     39    H      -68.0650  -91.1740   -9.2570 H       2  LIG2        0.0257
     40    H      -66.7760  -91.4810  -10.3820 H       2  LIG2        0.0257
     41    H      -68.3580  -92.1590  -10.6650 H       2  LIG2        0.0257
     42    H      -66.8420  -90.4960  -12.4290 H       2  LIG2        0.2102
@<TRIPOS>BOND
     1    24    10    1
     2     1    42    1
     3     1     9    1
     4    20     6    1
     5    25    10    1
     6    10     6    1
     7    10    14    1
     8    26    11    1
     9     6     9    1
    10     6     5    1
    11     9    11    1
    12     9    16    1
    13    35    14    1
    14    23     8    1
    15    11    27    1
    16    11     7    1
    17    14     8    1
    18    14    34    1
    19    41    16    1
    20    40    16    1
    21    16    39    1
    22    19     5    1
    23     8     5    1
    24     8    15    1
    25     5     2    1
    26    21     7    1
    27     7    22    1
    28     7     4    1
    29    37    15    1
    30    30    12    1
    31    15    38    1
    32    15    36    1
    33     2     4    1
    34     2    17    1
    35     2     3    1
    36     4    18    1
    37     4     3    1
    38    12     3    1
    39    12    29    1
    40    12    28    1
    41     3    13    1
    42    13    32    1
    43    13    33    1
    44    13    31    1
@<TRIPOS>MOLECULE
11996452_run_21.pdb
 42 44 0 0 0
SMALL
GASTEIGER

@<TRIPOS>ATOM
      1    O      -70.5070  -88.6590  -10.6790 O.3     2  LIG2       -0.3886
      2    C      -69.7060  -87.8850   -6.3670 C.3     2  LIG2       -0.0289
      3    C      -70.5630  -87.4350   -5.1900 C.3     2  LIG2       -0.0284
      4    C      -70.9400  -86.9950   -6.5840 C.3     2  LIG2       -0.0319
      5    C      -69.7320  -89.3330   -6.9380 C.3     2  LIG2       -0.0294
      6    C      -69.8080  -89.4320   -8.4980 C.3     2  LIG2       -0.0090
      7    C      -72.0960  -87.5900   -7.4110 C.3     2  LIG2       -0.0468
      8    C      -68.4960  -90.1810   -6.5460 C.3     2  LIG2       -0.0404
      9    C      -70.3600  -88.2200   -9.3370 C.3     2  LIG2        0.0664
     10    C      -68.4430  -90.0080   -8.9530 C.3     2  LIG2       -0.0471
     11    C      -71.7870  -87.7330   -8.9180 C.3     2  LIG2       -0.0237
     12    C      -71.4530  -88.4200   -4.3970 C.3     2  LIG2       -0.0593
     13    C      -69.9420  -86.3680   -4.2670 C.3     2  LIG2       -0.0593
     14    C      -67.5350  -90.0150   -7.7240 C.3     2  LIG2       -0.0498
     15    C      -67.8690  -89.8830   -5.1690 C.3     2  LIG2       -0.0621
     16    C      -69.3860  -87.0160   -9.4720 C.3     2  LIG2       -0.0358
     17    H      -68.7330  -87.4120   -6.4970 H       2  LIG2        0.0312
     18    H      -70.7960  -85.9370   -6.8080 H       2  LIG2        0.0309
     19    H      -70.6010  -89.8510   -6.5360 H       2  LIG2        0.0310
     20    H      -70.5260  -90.2370   -8.6810 H       2  LIG2        0.0331
     21    H      -72.3950  -88.5660   -7.0330 H       2  LIG2        0.0269
     22    H      -72.9780  -86.9610   -7.2870 H       2  LIG2        0.0269
     23    H      -68.8050  -91.2280   -6.5220 H       2  LIG2        0.0301
     24    H      -68.5760  -91.0290   -9.3150 H       2  LIG2        0.0269
     25    H      -67.9830  -89.4590   -9.7750 H       2  LIG2        0.0269
     26    H      -72.5400  -88.4210   -9.3110 H       2  LIG2        0.0293
     27    H      -71.9980  -86.7760   -9.3990 H       2  LIG2        0.0293
     28    H      -72.2470  -87.8840   -3.8760 H       2  LIG2        0.0235
     29    H      -70.8670  -88.9480   -3.6450 H       2  LIG2        0.0235
     30    H      -71.9420  -89.1780   -5.0040 H       2  LIG2        0.0235
     31    H      -70.7150  -85.7920   -3.7590 H       2  LIG2        0.0235
     32    H      -69.3190  -85.6620   -4.8170 H       2  LIG2        0.0235
     33    H      -69.3130  -86.8300   -3.5060 H       2  LIG2        0.0235
     34    H      -66.9890  -89.0730   -7.6470 H       2  LIG2        0.0268
     35    H      -66.8000  -90.8200   -7.7710 H       2  LIG2        0.0268
     36    H      -67.4500  -88.8780   -5.1150 H       2  LIG2        0.0233
     37    H      -67.0620  -90.5840   -4.9530 H       2  LIG2        0.0233
     38    H      -68.6080  -89.9800   -4.3730 H       2  LIG2        0.0233
     39    H      -69.1820  -86.5120   -8.5320 H       2  LIG2        0.0257
     40    H      -69.7890  -86.2510  -10.1390 H       2  LIG2        0.0257
     41    H      -68.4210  -87.3030   -9.8860 H       2  LIG2        0.0257
     42    H      -70.7890  -87.9130  -11.2120 H       2  LIG2        0.2102
@<TRIPOS>BOND
     1    42     1    1
     2     1     9    1
     3    40    16    1
     4    41    16    1
     5    25    10    1
     6    16     9    1
     7    16    39    1
     8    27    11    1
     9     9    11    1
    10     9     6    1
    11    24    10    1
    12    26    11    1
    13    10     6    1
    14    10    14    1
    15    11     7    1
    16    20     6    1
    17     6     5    1
    18    35    14    1
    19    14    34    1
    20    14     8    1
    21     7    22    1
    22     7    21    1
    23     7     4    1
    24     5     8    1
    25     5    19    1
    26     5     2    1
    27    18     4    1
    28     4     2    1
    29     4     3    1
    30     8    23    1
    31     8    15    1
    32    17     2    1
    33     2     3    1
    34     3    12    1
    35     3    13    1
    36    15    36    1
    37    15    37    1
    38    15    38    1
    39    30    12    1
    40    32    13    1
    41    12    28    1
    42    12    29    1
    43    13    31    1
    44    13    33    1
@<TRIPOS>MOLECULE
11996452_run_20.pdb
 42 44 0 0 0
SMALL
GASTEIGER

@<TRIPOS>ATOM
      1    O      -61.6800  -70.7760  -11.2900 O.3     2  LIG2       -0.3886
      2    C      -59.7840  -72.2630   -7.5440 C.3     2  LIG2       -0.0289
      3    C      -58.3630  -72.2550   -6.9950 C.3     2  LIG2       -0.0284
      4    C      -58.5730  -72.2710   -8.4910 C.3     2  LIG2       -0.0319
      5    C      -60.7090  -71.0100   -7.5410 C.3     2  LIG2       -0.0294
      6    C      -61.4700  -70.7410   -8.8820 C.3     2  LIG2       -0.0090
      7    C      -58.3990  -71.0520   -9.4160 C.3     2  LIG2       -0.0468
      8    C      -61.8150  -71.0540   -6.4590 C.3     2  LIG2       -0.0404
      9    C      -60.9240  -71.3420  -10.2310 C.3     2  LIG2        0.0664
     10    C      -62.9680  -71.0020   -8.5790 C.3     2  LIG2       -0.0471
     11    C      -59.4390  -70.9710  -10.5560 C.3     2  LIG2       -0.0237
     12    C      -57.7620  -71.0170   -6.2890 C.3     2  LIG2       -0.0593
     13    C      -57.8780  -73.5650   -6.3460 C.3     2  LIG2       -0.0593
     14    C      -63.0340  -71.6250   -7.1850 C.3     2  LIG2       -0.0498
     15    C      -61.4620  -71.7810   -5.1450 C.3     2  LIG2       -0.0621
     16    C      -61.1610  -72.8680  -10.4150 C.3     2  LIG2       -0.0358
     17    H      -60.3520  -73.1900   -7.4690 H       2  LIG2        0.0312
     18    H      -58.3080  -73.1990   -9.0010 H       2  LIG2        0.0309
     19    H      -60.1030  -70.1310   -7.3280 H       2  LIG2        0.0310
     20    H      -61.3970  -69.6590   -9.0200 H       2  LIG2        0.0331
     21    H      -58.4370  -70.1200   -8.8580 H       2  LIG2        0.0269
     22    H      -57.3980  -71.0790   -9.8490 H       2  LIG2        0.0269
     23    H      -62.0520  -70.0240   -6.1840 H       2  LIG2        0.0301
     24    H      -63.5140  -70.0570   -8.5830 H       2  LIG2        0.0269
     25    H      -63.4630  -71.6360   -9.3130 H       2  LIG2        0.0269
     26    H      -59.3920  -69.9440  -10.9290 H       2  LIG2        0.0293
     27    H      -59.0850  -71.5900  -11.3830 H       2  LIG2        0.0293
     28    H      -56.6720  -71.0540   -6.3150 H       2  LIG2        0.0235
     29    H      -58.0640  -70.9870   -5.2430 H       2  LIG2        0.0235
     30    H      -58.0460  -70.0630   -6.7270 H       2  LIG2        0.0235
     31    H      -56.7920  -73.6460   -6.3890 H       2  LIG2        0.0235
     32    H      -58.2890  -74.4460   -6.8420 H       2  LIG2        0.0235
     33    H      -58.1780  -73.6150   -5.2980 H       2  LIG2        0.0235
     34    H      -62.9690  -72.7130   -7.2490 H       2  LIG2        0.0268
     35    H      -63.9670  -71.3790   -6.6780 H       2  LIG2        0.0268
     36    H      -61.2860  -72.8460   -5.2980 H       2  LIG2        0.0233
     37    H      -62.2710  -71.6850   -4.4210 H       2  LIG2        0.0233
     38    H      -60.5650  -71.3560   -4.6920 H       2  LIG2        0.0233
     39    H      -60.6170  -73.4830   -9.7040 H       2  LIG2        0.0257
     40    H      -60.8450  -73.2040  -11.4040 H       2  LIG2        0.0257
     41    H      -62.2110  -73.1420  -10.3220 H       2  LIG2        0.0257
     42    H      -61.3780  -71.1590  -12.1160 H       2  LIG2        0.2102
@<TRIPOS>BOND
     1    42     1    1
     2    40    16    1
     3    27    11    1
     4     1     9    1
     5    26    11    1
     6    11     9    1
     7    11     7    1
     8    16    41    1
     9    16     9    1
    10    16    39    1
    11     9     6    1
    12    22     7    1
    13     7    21    1
    14     7     4    1
    15    25    10    1
    16    20     6    1
    17    18     4    1
    18     6    10    1
    19     6     5    1
    20    24    10    1
    21    10    14    1
    22     4     2    1
    23     4     3    1
    24     2     5    1
    25     2    17    1
    26     2     3    1
    27     5    19    1
    28     5     8    1
    29    34    14    1
    30    14    35    1
    31    14     8    1
    32     3    13    1
    33     3    12    1
    34    32    13    1
    35    30    12    1
    36     8    23    1
    37     8    15    1
    38    31    13    1
    39    13    33    1
    40    28    12    1
    41    12    29    1
    42    36    15    1
    43    15    38    1
    44    15    37    1
