# Top-energy pose of compounds ranked according to the score (given in kcal/mol).
@<TRIPOS>MOLECULE
5zty_ligand_run_22.pdb
 66 70 0 0 0
SMALL
GASTEIGER

@<TRIPOS>ATOM
      1    C      108.7140  115.9430  123.2970 C.ar    2  LIG2       -0.0611
      2    C      109.7570  116.8820  123.3970 C.ar    2  LIG2       -0.0617
      3    C      110.9520  116.5420  124.0620 C.ar    2  LIG2       -0.0611
      4    C      111.1040  115.2590  124.6200 C.ar    2  LIG2       -0.0526
      5    C      110.0700  114.3070  124.5130 C.ar    2  LIG2        0.0003
      6    C      108.8750  114.6570  123.8490 C.ar    2  LIG2       -0.0526
      7    C      110.2460  112.9610  125.0400 C.ar    2  LIG2        0.0725
      8    C      110.4500  110.8130  125.4340 C.ar    2  LIG2        0.1505
      9    C      110.3010  111.7700  124.3730 C.ar    2  LIG2        0.0072
     10    C      110.2550  111.5530  122.8780 C.3     2  LIG2       -0.0354
     11    C      110.5480  109.3350  125.1860 C.2     2  LIG2        0.2649
     12    C      110.4450  113.6100  127.5230 C.3     2  LIG2        0.0422
     13    C      109.0470  113.8660  128.1120 C.3     2  LIG2       -0.0333
     14    C      108.3930  112.6060  128.7110 C.3     2  LIG2       -0.0493
     15    C      107.0920  112.9390  129.4720 C.3     2  LIG2       -0.0297
     16    C      107.3250  113.6040  130.8360 C.3     2  LIG2        0.0442
     17    C      110.9190  107.1490  126.3550 C.3     2  LIG2        0.0357
     18    C      110.9770  106.7510  127.8460 C.3     2  LIG2       -0.0287
     19    C      111.2090  105.2360  127.9690 C.3     2  LIG2       -0.0386
     20    C      110.0480  104.4730  127.2920 C.3     2  LIG2       -0.0472
     21    C      109.9900  104.8610  125.8000 C.3     2  LIG2       -0.0386
     22    N      110.4000  112.7050  126.3900 N.ar    2  LIG2       -0.2627
     23    N      110.5410  111.3880  126.6180 N.ar    2  LIG2       -0.1657
     24    N      110.7110  108.5900  126.2870 N.am    2  LIG2       -0.3045
     25    O      108.0410  112.7460  131.7010 O.3     2  LIG2       -0.3950
     26    O      110.5630  108.8740  124.0410 O.2     2  LIG2       -0.2684
     27    C      109.7530  106.3800  125.6750 C.3     2  LIG2       -0.0287
     28    C      111.3220  104.4870  125.1130 C.3     2  LIG2       -0.0472
     29    C      112.4830  105.2390  125.7970 C.3     2  LIG2       -0.0386
     30    C      112.2670  106.7540  125.7010 C.3     2  LIG2       -0.0287
     31    C      112.5440  104.8590  127.2800 C.3     2  LIG2       -0.0472
     32    H      107.7950  116.2060  122.7950 H       2  LIG2        0.0618
     33    H      109.6380  117.8680  122.9730 H       2  LIG2        0.0618
     34    H      111.7510  117.2660  124.1430 H       2  LIG2        0.0618
     35    H      112.0270  115.0000  125.1160 H       2  LIG2        0.0624
     36    H      108.0780  113.9340  123.7600 H       2  LIG2        0.0624
     37    H      111.0360  110.8670  122.5540 H       2  LIG2        0.0279
     38    H      109.3070  111.1310  122.5430 H       2  LIG2        0.0279
     39    H      110.4050  112.4790  122.3230 H       2  LIG2        0.0279
     40    H      111.0940  113.1780  128.2860 H       2  LIG2        0.0509
     41    H      110.9240  114.5310  127.1940 H       2  LIG2        0.0509
     42    H      109.1170  114.6390  128.8770 H       2  LIG2        0.0283
     43    H      108.3880  114.2640  127.3420 H       2  LIG2        0.0283
     44    H      108.1760  111.8950  127.9140 H       2  LIG2        0.0267
     45    H      109.0950  112.0950  129.3690 H       2  LIG2        0.0267
     46    H      106.4490  113.5750  128.8590 H       2  LIG2        0.0287
     47    H      106.5380  112.0130  129.6230 H       2  LIG2        0.0287
     48    H      107.8990  114.5220  130.7130 H       2  LIG2        0.0557
     49    H      106.3760  113.8760  131.2970 H       2  LIG2        0.0557
     50    H      111.7830  107.2860  128.3530 H       2  LIG2        0.0288
     51    H      110.0520  107.0280  128.3550 H       2  LIG2        0.0288
     52    H      111.2490  104.9930  129.0290 H       2  LIG2        0.0302
     53    H      110.1790  103.3940  127.3890 H       2  LIG2        0.0271
     54    H      109.1030  104.7110  127.7850 H       2  LIG2        0.0271
     55    H      109.1700  104.3260  125.3190 H       2  LIG2        0.0302
     56    H      110.7040  109.0850  127.1670 H       2  LIG2        0.1496
     57    H      108.9640  112.7710  131.4680 H       2  LIG2        0.2094
     58    H      108.8060  106.6540  126.1410 H       2  LIG2        0.0288
     59    H      109.6630  106.6440  124.6210 H       2  LIG2        0.0288
     60    H      111.4830  103.4110  125.1700 H       2  LIG2        0.0271
     61    H      111.2880  104.7350  124.0520 H       2  LIG2        0.0271
     62    H      113.4240  104.9750  125.3120 H       2  LIG2        0.0302
     63    H      112.2800  107.0380  124.6590 H       2  LIG2        0.0288
     64    H      113.0960  107.2850  126.1720 H       2  LIG2        0.0288
     65    H      113.3760  105.3730  127.7570 H       2  LIG2        0.0271
     66    H      112.7660  103.7970  127.3510 H       2  LIG2        0.0271
@<TRIPOS>BOND
     1    39    10    1
     2    38    10    1
     3    37    10    1
     4    32     1    1
     5    10     9    1
     6    33     2    1
     7     1     2   ar
     8     1     6   ar
     9     2     3   ar
    10    36     6    1
    11     6     5   ar
    12    26    11    2
    13    61    28    1
    14     3    34    1
    15     3     4   ar
    16     9     7   ar
    17     9     8   ar
    18     5     4   ar
    19     5     7    1
    20     4    35    1
    21    59    27    1
    22    63    30    1
    23     7    22   ar
    24    28    60    1
    25    28    29    1
    26    28    21    1
    27    11     8    1
    28    11    24   am
    29    62    29    1
    30    55    21    1
    31     8    23   ar
    32    27    21    1
    33    27    58    1
    34    27    17    1
    35    30    29    1
    36    30    64    1
    37    30    17    1
    38    29    31    1
    39    21    20    1
    40    24    17    1
    41    24    56    1
    42    17    18    1
    43    22    23   ar
    44    22    12    1
    45    41    12    1
    46    31    66    1
    47    31    65    1
    48    31    19    1
    49    20    53    1
    50    20    54    1
    51    20    19    1
    52    43    13    1
    53    12    13    1
    54    12    40    1
    55    18    19    1
    56    18    50    1
    57    18    51    1
    58    44    14    1
    59    19    52    1
    60    13    14    1
    61    13    42    1
    62    14    45    1
    63    14    15    1
    64    46    15    1
    65    15    47    1
    66    15    16    1
    67    48    16    1
    68    16    49    1
    69    16    25    1
    70    57    25    1
