@<TRIPOS>MOLECULE
5zty_ligand_run_22.pdb
 66 70 0 0 0
SMALL
GASTEIGER

@<TRIPOS>ATOM
      1    C      108.7140  115.9430  123.2970 C.ar    2  LIG2       -0.0611
      2    C      109.7570  116.8820  123.3970 C.ar    2  LIG2       -0.0617
      3    C      110.9520  116.5420  124.0620 C.ar    2  LIG2       -0.0611
      4    C      111.1040  115.2590  124.6200 C.ar    2  LIG2       -0.0526
      5    C      110.0700  114.3070  124.5130 C.ar    2  LIG2        0.0003
      6    C      108.8750  114.6570  123.8490 C.ar    2  LIG2       -0.0526
      7    C      110.2460  112.9610  125.0400 C.ar    2  LIG2        0.0725
      8    C      110.4500  110.8130  125.4340 C.ar    2  LIG2        0.1505
      9    C      110.3010  111.7700  124.3730 C.ar    2  LIG2        0.0072
     10    C      110.2550  111.5530  122.8780 C.3     2  LIG2       -0.0354
     11    C      110.5480  109.3350  125.1860 C.2     2  LIG2        0.2649
     12    C      110.4450  113.6100  127.5230 C.3     2  LIG2        0.0422
     13    C      109.0470  113.8660  128.1120 C.3     2  LIG2       -0.0333
     14    C      108.3930  112.6060  128.7110 C.3     2  LIG2       -0.0493
     15    C      107.0920  112.9390  129.4720 C.3     2  LIG2       -0.0297
     16    C      107.3250  113.6040  130.8360 C.3     2  LIG2        0.0442
     17    C      110.9190  107.1490  126.3550 C.3     2  LIG2        0.0357
     18    C      110.9770  106.7510  127.8460 C.3     2  LIG2       -0.0287
     19    C      111.2090  105.2360  127.9690 C.3     2  LIG2       -0.0386
     20    C      110.0480  104.4730  127.2920 C.3     2  LIG2       -0.0472
     21    C      109.9900  104.8610  125.8000 C.3     2  LIG2       -0.0386
     22    N      110.4000  112.7050  126.3900 N.ar    2  LIG2       -0.2627
     23    N      110.5410  111.3880  126.6180 N.ar    2  LIG2       -0.1657
     24    N      110.7110  108.5900  126.2870 N.am    2  LIG2       -0.3045
     25    O      108.0410  112.7460  131.7010 O.3     2  LIG2       -0.3950
     26    O      110.5630  108.8740  124.0410 O.2     2  LIG2       -0.2684
     27    C      109.7530  106.3800  125.6750 C.3     2  LIG2       -0.0287
     28    C      111.3220  104.4870  125.1130 C.3     2  LIG2       -0.0472
     29    C      112.4830  105.2390  125.7970 C.3     2  LIG2       -0.0386
     30    C      112.2670  106.7540  125.7010 C.3     2  LIG2       -0.0287
     31    C      112.5440  104.8590  127.2800 C.3     2  LIG2       -0.0472
     32    H      107.7950  116.2060  122.7950 H       2  LIG2        0.0618
     33    H      109.6380  117.8680  122.9730 H       2  LIG2        0.0618
     34    H      111.7510  117.2660  124.1430 H       2  LIG2        0.0618
     35    H      112.0270  115.0000  125.1160 H       2  LIG2        0.0624
     36    H      108.0780  113.9340  123.7600 H       2  LIG2        0.0624
     37    H      111.0360  110.8670  122.5540 H       2  LIG2        0.0279
     38    H      109.3070  111.1310  122.5430 H       2  LIG2        0.0279
     39    H      110.4050  112.4790  122.3230 H       2  LIG2        0.0279
     40    H      111.0940  113.1780  128.2860 H       2  LIG2        0.0509
     41    H      110.9240  114.5310  127.1940 H       2  LIG2        0.0509
     42    H      109.1170  114.6390  128.8770 H       2  LIG2        0.0283
     43    H      108.3880  114.2640  127.3420 H       2  LIG2        0.0283
     44    H      108.1760  111.8950  127.9140 H       2  LIG2        0.0267
     45    H      109.0950  112.0950  129.3690 H       2  LIG2        0.0267
     46    H      106.4490  113.5750  128.8590 H       2  LIG2        0.0287
     47    H      106.5380  112.0130  129.6230 H       2  LIG2        0.0287
     48    H      107.8990  114.5220  130.7130 H       2  LIG2        0.0557
     49    H      106.3760  113.8760  131.2970 H       2  LIG2        0.0557
     50    H      111.7830  107.2860  128.3530 H       2  LIG2        0.0288
     51    H      110.0520  107.0280  128.3550 H       2  LIG2        0.0288
     52    H      111.2490  104.9930  129.0290 H       2  LIG2        0.0302
     53    H      110.1790  103.3940  127.3890 H       2  LIG2        0.0271
     54    H      109.1030  104.7110  127.7850 H       2  LIG2        0.0271
     55    H      109.1700  104.3260  125.3190 H       2  LIG2        0.0302
     56    H      110.7040  109.0850  127.1670 H       2  LIG2        0.1496
     57    H      108.9640  112.7710  131.4680 H       2  LIG2        0.2094
     58    H      108.8060  106.6540  126.1410 H       2  LIG2        0.0288
     59    H      109.6630  106.6440  124.6210 H       2  LIG2        0.0288
     60    H      111.4830  103.4110  125.1700 H       2  LIG2        0.0271
     61    H      111.2880  104.7350  124.0520 H       2  LIG2        0.0271
     62    H      113.4240  104.9750  125.3120 H       2  LIG2        0.0302
     63    H      112.2800  107.0380  124.6590 H       2  LIG2        0.0288
     64    H      113.0960  107.2850  126.1720 H       2  LIG2        0.0288
     65    H      113.3760  105.3730  127.7570 H       2  LIG2        0.0271
     66    H      112.7660  103.7970  127.3510 H       2  LIG2        0.0271
@<TRIPOS>BOND
     1    39    10    1
     2    38    10    1
     3    37    10    1
     4    32     1    1
     5    10     9    1
     6    33     2    1
     7     1     2   ar
     8     1     6   ar
     9     2     3   ar
    10    36     6    1
    11     6     5   ar
    12    26    11    2
    13    61    28    1
    14     3    34    1
    15     3     4   ar
    16     9     7   ar
    17     9     8   ar
    18     5     4   ar
    19     5     7    1
    20     4    35    1
    21    59    27    1
    22    63    30    1
    23     7    22   ar
    24    28    60    1
    25    28    29    1
    26    28    21    1
    27    11     8    1
    28    11    24   am
    29    62    29    1
    30    55    21    1
    31     8    23   ar
    32    27    21    1
    33    27    58    1
    34    27    17    1
    35    30    29    1
    36    30    64    1
    37    30    17    1
    38    29    31    1
    39    21    20    1
    40    24    17    1
    41    24    56    1
    42    17    18    1
    43    22    23   ar
    44    22    12    1
    45    41    12    1
    46    31    66    1
    47    31    65    1
    48    31    19    1
    49    20    53    1
    50    20    54    1
    51    20    19    1
    52    43    13    1
    53    12    13    1
    54    12    40    1
    55    18    19    1
    56    18    50    1
    57    18    51    1
    58    44    14    1
    59    19    52    1
    60    13    14    1
    61    13    42    1
    62    14    45    1
    63    14    15    1
    64    46    15    1
    65    15    47    1
    66    15    16    1
    67    48    16    1
    68    16    49    1
    69    16    25    1
    70    57    25    1
@<TRIPOS>MOLECULE
5zty_ligand_run_4.pdb
 66 70 0 0 0
SMALL
GASTEIGER

@<TRIPOS>ATOM
      1    C      109.0540  115.2940  123.6530 C.ar    2  LIG2       -0.0611
      2    C      109.8890  116.3900  123.9360 C.ar    2  LIG2       -0.0617
      3    C      110.7570  116.3490  125.0450 C.ar    2  LIG2       -0.0611
      4    C      110.7920  115.2070  125.8670 C.ar    2  LIG2       -0.0526
      5    C      109.9690  114.0980  125.5830 C.ar    2  LIG2        0.0003
      6    C      109.1000  114.1500  124.4730 C.ar    2  LIG2       -0.0526
      7    C      110.0440  112.8940  126.3980 C.ar    2  LIG2        0.0725
      8    C      110.3310  110.9070  127.2820 C.ar    2  LIG2        0.1505
      9    C      110.6130  111.6860  126.1090 C.ar    2  LIG2        0.0072
     10    C      111.3820  111.3100  124.8620 C.3     2  LIG2       -0.0354
     11    C      110.7620  109.4750  127.4280 C.2     2  LIG2        0.2649
     12    C      108.8280  113.8270  128.4670 C.3     2  LIG2        0.0422
     13    C      107.3370  113.4950  128.6550 C.3     2  LIG2       -0.0333
     14    C      107.0610  112.5690  129.8550 C.3     2  LIG2       -0.0493
     15    C      107.2330  113.3040  131.2000 C.3     2  LIG2       -0.0297
     16    C      107.3910  112.3650  132.4040 C.3     2  LIG2        0.0442
     17    C      110.7850  107.2790  126.2200 C.3     2  LIG2        0.0357
     18    C      110.4870  106.8820  124.7580 C.3     2  LIG2       -0.0287
     19    C      110.7090  105.3710  124.5770 C.3     2  LIG2       -0.0386
     20    C      112.1770  105.0160  124.9020 C.3     2  LIG2       -0.0472
     21    C      112.4790  105.4040  126.3650 C.3     2  LIG2       -0.0386
     22    N      109.5120  112.8230  127.6720 N.ar    2  LIG2       -0.2627
     23    N      109.7080  111.6070  128.2110 N.ar    2  LIG2       -0.1657
     24    N      110.5500  108.7130  126.3480 N.am    2  LIG2       -0.3045
     25    O      108.5120  111.5190  132.2420 O.3     2  LIG2       -0.3950
     26    O      111.1930  109.0390  128.4990 O.2     2  LIG2       -0.2684
     27    C      112.2610  106.9200  126.5470 C.3     2  LIG2       -0.0287
     28    C      111.5390  104.6280  127.3130 C.3     2  LIG2       -0.0472
     29    C      110.0720  104.9730  126.9800 C.3     2  LIG2       -0.0386
     30    C      109.8290  106.4780  127.1400 C.3     2  LIG2       -0.0287
     31    C      109.7670  104.5920  125.5290 C.3     2  LIG2       -0.0472
     32    H      108.3820  115.3290  122.8080 H       2  LIG2        0.0618
     33    H      109.8580  117.2680  123.3080 H       2  LIG2        0.0618
     34    H      111.3940  117.1940  125.2640 H       2  LIG2        0.0618
     35    H      111.4700  115.1760  126.7070 H       2  LIG2        0.0624
     36    H      108.4660  113.3040  124.2470 H       2  LIG2        0.0624
     37    H      112.3090  110.7960  125.1100 H       2  LIG2        0.0279
     38    H      110.8190  110.6450  124.2060 H       2  LIG2        0.0279
     39    H      111.6580  112.1820  124.2700 H       2  LIG2        0.0279
     40    H      109.3170  113.8920  129.4390 H       2  LIG2        0.0509
     41    H      108.9730  114.7910  127.9810 H       2  LIG2        0.0509
     42    H      106.7770  114.4220  128.7730 H       2  LIG2        0.0283
     43    H      106.9470  113.0200  127.7560 H       2  LIG2        0.0283
     44    H      106.0470  112.1730  129.7830 H       2  LIG2        0.0267
     45    H      107.7130  111.6970  129.8140 H       2  LIG2        0.0267
     46    H      108.0850  113.9860  131.1510 H       2  LIG2        0.0287
     47    H      106.3570  113.9330  131.3590 H       2  LIG2        0.0287
     48    H      107.5300  112.9450  133.3170 H       2  LIG2        0.0557
     49    H      106.4960  111.7610  132.5400 H       2  LIG2        0.0557
     50    H      109.4570  107.1330  124.4970 H       2  LIG2        0.0288
     51    H      111.1260  107.4370  124.0690 H       2  LIG2        0.0288
     52    H      110.4860  105.1270  123.5400 H       2  LIG2        0.0302
     53    H      112.3650  103.9510  124.7560 H       2  LIG2        0.0271
     54    H      112.8510  105.5410  124.2220 H       2  LIG2        0.0271
     55    H      113.5150  105.1580  126.5980 H       2  LIG2        0.0302
     56    H      110.1710  109.1800  125.5380 H       2  LIG2        0.1496
     57    H      109.2430  112.0330  131.9130 H       2  LIG2        0.2094
     58    H      112.9320  107.4800  125.8950 H       2  LIG2        0.0288
     59    H      112.5220  107.2010  127.5680 H       2  LIG2        0.0288
     60    H      111.7080  103.5560  127.2130 H       2  LIG2        0.0271
     61    H      111.7560  104.8760  128.3530 H       2  LIG2        0.0271
     62    H      109.4080  104.4250  127.6510 H       2  LIG2        0.0302
     63    H      109.9860  106.7450  128.1740 H       2  LIG2        0.0288
     64    H      108.7880  106.7190  126.9180 H       2  LIG2        0.0288
     65    H      108.7270  104.8150  125.3010 H       2  LIG2        0.0271
     66    H      109.8720  103.5140  125.4300 H       2  LIG2        0.0271
@<TRIPOS>BOND
     1    32     1    1
     2    33     2    1
     3    52    19    1
     4     1     2   ar
     5     1     6   ar
     6     2     3   ar
     7    51    18    1
     8    38    10    1
     9    54    20    1
    10    36     6    1
    11    39    10    1
    12     6     5   ar
    13    50    18    1
    14    19    18    1
    15    19    20    1
    16    19    31    1
    17    53    20    1
    18    18    17    1
    19    10    37    1
    20    10     9    1
    21    20    21    1
    22     3    34    1
    23     3     4   ar
    24    65    31    1
    25    66    31    1
    26    31    29    1
    27    56    24    1
    28     5     4   ar
    29     5     7    1
    30     4    35    1
    31    58    27    1
    32     9     7   ar
    33     9     8   ar
    34    17    24    1
    35    17    27    1
    36    17    30    1
    37    24    11   am
    38    21    27    1
    39    21    55    1
    40    21    28    1
    41     7    22   ar
    42    27    59    1
    43    64    30    1
    44    29    30    1
    45    29    28    1
    46    29    62    1
    47    30    63    1
    48    60    28    1
    49     8    11    1
    50     8    23   ar
    51    28    61    1
    52    11    26    2
    53    22    23   ar
    54    22    12    1
    55    43    13    1
    56    41    12    1
    57    12    13    1
    58    12    40    1
    59    13    42    1
    60    13    14    1
    61    44    14    1
    62    45    14    1
    63    14    15    1
    64    46    15    1
    65    15    47    1
    66    15    16    1
    67    57    25    1
    68    25    16    1
    69    16    49    1
    70    16    48    1
@<TRIPOS>MOLECULE
5zty_ligand_run_7.pdb
 66 70 0 0 0
SMALL
GASTEIGER

@<TRIPOS>ATOM
      1    C      109.2130  104.4550  126.9940 C.ar    2  LIG2       -0.0611
      2    C      110.4690  103.8340  127.1160 C.ar    2  LIG2       -0.0617
      3    C      111.5750  104.3270  126.3950 C.ar    2  LIG2       -0.0611
      4    C      111.4230  105.4470  125.5570 C.ar    2  LIG2       -0.0526
      5    C      110.1710  106.0850  125.4380 C.ar    2  LIG2        0.0003
      6    C      109.0680  105.5820  126.1600 C.ar    2  LIG2       -0.0526
      7    C      110.0230  107.2770  124.6150 C.ar    2  LIG2        0.0725
      8    C      109.9570  109.2750  123.7120 C.ar    2  LIG2        0.1505
      9    C      110.4010  108.5640  124.8790 C.ar    2  LIG2        0.0072
     10    C      111.1410  109.0710  126.0950 C.3     2  LIG2       -0.0354
     11    C      110.1470  110.7560  123.5440 C.2     2  LIG2        0.2649
     12    C      108.9040  106.1400  122.5950 C.3     2  LIG2        0.0422
     13    C      107.4000  105.9390  122.8540 C.3     2  LIG2       -0.0333
     14    C      106.6150  105.4960  121.6040 C.3     2  LIG2       -0.0493
     15    C      105.1440  105.1690  121.9350 C.3     2  LIG2       -0.0297
     16    C      104.9570  103.8370  122.6750 C.3     2  LIG2        0.0442
     17    C      109.9150  112.9350  124.7620 C.3     2  LIG2        0.0357
     18    C      109.6380  113.2890  126.2390 C.3     2  LIG2       -0.0287
     19    C      109.6330  114.8170  126.4120 C.3     2  LIG2       -0.0386
     20    C      111.0090  115.3930  126.0100 C.3     2  LIG2       -0.0472
     21    C      111.2880  115.0480  124.5320 C.3     2  LIG2       -0.0386
     22    N      109.4440  107.2480  123.3610 N.ar    2  LIG2       -0.2627
     23    N      109.4240  108.4750  122.8090 N.ar    2  LIG2       -0.1657
     24    N      109.8990  111.4810  124.6410 N.am    2  LIG2       -0.3045
     25    O      105.5430  102.7710  121.9560 O.3     2  LIG2       -0.3950
     26    O      110.4250  111.2490  122.4470 O.2     2  LIG2       -0.2684
     27    C      111.2980  113.5160  124.3570 C.3     2  LIG2       -0.0287
     28    C      110.1900  115.6640  123.6380 C.3     2  LIG2       -0.0472
     29    C      108.8150  115.0990  124.0480 C.3     2  LIG2       -0.0386
     30    C      108.7990  113.5730  123.8970 C.3     2  LIG2       -0.0287
     31    C      108.5320  115.4360  125.5150 C.3     2  LIG2       -0.0472
     32    H      108.3630  104.0720  127.5390 H       2  LIG2        0.0618
     33    H      110.5840  102.9710  127.7560 H       2  LIG2        0.0618
     34    H      112.5380  103.8450  126.4860 H       2  LIG2        0.0618
     35    H      112.2770  105.8290  125.0180 H       2  LIG2        0.0624
     36    H      108.1060  106.0650  126.0770 H       2  LIG2        0.0624
     37    H      111.9650  109.7240  125.8120 H       2  LIG2        0.0279
     38    H      110.5010  109.6440  126.7680 H       2  LIG2        0.0279
     39    H      111.5740  108.2610  126.6820 H       2  LIG2        0.0279
     40    H      109.0730  106.3350  121.5350 H       2  LIG2        0.0509
     41    H      109.4830  105.2510  122.8440 H       2  LIG2        0.0509
     42    H      107.2690  105.2030  123.6460 H       2  LIG2        0.0283
     43    H      106.9620  106.8640  123.2270 H       2  LIG2        0.0283
     44    H      106.6530  106.2860  120.8530 H       2  LIG2        0.0267
     45    H      107.0990  104.6370  121.1420 H       2  LIG2        0.0267
     46    H      104.6990  105.9780  122.5180 H       2  LIG2        0.0287
     47    H      104.5840  105.1320  121.0010 H       2  LIG2        0.0287
     48    H      105.4260  103.8850  123.6580 H       2  LIG2        0.0557
     49    H      103.8990  103.6310  122.8330 H       2  LIG2        0.0557
     50    H      108.6740  112.8830  126.5530 H       2  LIG2        0.0288
     51    H      110.3910  112.8430  126.8900 H       2  LIG2        0.0288
     52    H      109.4300  115.0290  127.4600 H       2  LIG2        0.0302
     53    H      111.0370  116.4750  126.1490 H       2  LIG2        0.0271
     54    H      111.7910  114.9820  126.6510 H       2  LIG2        0.0271
     55    H      112.2600  115.4510  124.2450 H       2  LIG2        0.0302
     56    H      109.6570  110.9650  125.4740 H       2  LIG2        0.1496
     57    H      105.2910  101.9470  122.3610 H       2  LIG2        0.2094
     58    H      112.0820  113.0700  124.9700 H       2  LIG2        0.0288
     59    H      111.5450  113.2740  123.3230 H       2  LIG2        0.0288
     60    H      110.1960  116.7500  123.7320 H       2  LIG2        0.0271
     61    H      110.3870  115.4480  122.5870 H       2  LIG2        0.0271
     62    H      108.0390  115.5340  123.4150 H       2  LIG2        0.0302
     63    H      108.9400  113.3280  122.8550 H       2  LIG2        0.0288
     64    H      107.8210  113.1760  124.1730 H       2  LIG2        0.0288
     65    H      107.5530  115.0560  125.7970 H       2  LIG2        0.0271
     66    H      108.4740  116.5180  125.6110 H       2  LIG2        0.0271
@<TRIPOS>BOND
     1    44    14    1
     2    47    15    1
     3    45    14    1
     4    40    12    1
     5    14    15    1
     6    14    13    1
     7    15    46    1
     8    15    16    1
     9    25    57    1
    10    25    16    1
    11    26    11    2
    12    61    28    1
    13    12    41    1
    14    12    13    1
    15    12    22    1
    16    16    49    1
    17    16    48    1
    18    23    22   ar
    19    23     8   ar
    20    13    43    1
    21    13    42    1
    22    63    30    1
    23    59    27    1
    24    22     7   ar
    25    62    29    1
    26    11     8    1
    27    11    24   am
    28    28    60    1
    29    28    29    1
    30    28    21    1
    31     8     9   ar
    32    30    29    1
    33    30    64    1
    34    30    17    1
    35    29    31    1
    36    55    21    1
    37    27    21    1
    38    27    17    1
    39    27    58    1
    40    21    20    1
    41     7     9   ar
    42     7     5    1
    43    24    17    1
    44    24    56    1
    45    17    18    1
    46     9    10    1
    47    35     4    1
    48     5     4   ar
    49     5     6   ar
    50    31    66    1
    51    31    65    1
    52    31    19    1
    53     4     3   ar
    54    37    10    1
    55    20    53    1
    56    20    19    1
    57    20    54    1
    58    36     6    1
    59    10    39    1
    60    10    38    1
    61     6     1   ar
    62    18    19    1
    63    18    50    1
    64    18    51    1
    65     3    34    1
    66     3     2   ar
    67    19    52    1
    68     1     2   ar
    69     1    32    1
    70     2    33    1
@<TRIPOS>MOLECULE
5zty_ligand_run_13.pdb
 66 70 0 0 0
SMALL
GASTEIGER

@<TRIPOS>ATOM
      1    C      110.6360  116.2740  124.2310 C.ar    2  LIG2       -0.0611
      2    C      109.4640  116.4590  123.4760 C.ar    2  LIG2       -0.0617
      3    C      108.4970  115.4360  123.4100 C.ar    2  LIG2       -0.0611
      4    C      108.7020  114.2310  124.1070 C.ar    2  LIG2       -0.0526
      5    C      109.8670  114.0410  124.8780 C.ar    2  LIG2        0.0003
      6    C      110.8320  115.0690  124.9340 C.ar    2  LIG2       -0.0526
      7    C      110.0560  112.8190  125.6450 C.ar    2  LIG2        0.0725
      8    C      110.3100  110.7850  126.4270 C.ar    2  LIG2        0.1505
      9    C      110.1980  111.5330  125.2060 C.ar    2  LIG2        0.0072
     10    C      110.2590  111.0550  123.7730 C.3     2  LIG2       -0.0354
     11    C      110.4770  109.2920  126.4520 C.2     2  LIG2        0.2649
     12    C      110.0670  113.9020  127.9810 C.3     2  LIG2        0.0422
     13    C      108.6370  114.1310  128.5020 C.3     2  LIG2       -0.0333
     14    C      107.9910  112.8650  129.0980 C.3     2  LIG2       -0.0493
     15    C      106.6380  113.1730  129.7730 C.3     2  LIG2       -0.0297
     16    C      106.0100  111.9660  130.4820 C.3     2  LIG2        0.0442
     17    C      111.4830  107.4320  127.7980 C.3     2  LIG2        0.0357
     18    C      112.5200  107.0160  126.7320 C.3     2  LIG2       -0.0287
     19    C      112.9410  105.5550  126.9630 C.3     2  LIG2       -0.0386
     20    C      113.5760  105.4090  128.3640 C.3     2  LIG2       -0.0472
     21    C      112.5420  105.8170  129.4330 C.3     2  LIG2       -0.0386
     22    N      110.1290  112.8110  127.0260 N.ar    2  LIG2       -0.2627
     23    N      110.3020  111.5620  127.4930 N.ar    2  LIG2       -0.1657
     24    N      111.1050  108.8160  127.5340 N.am    2  LIG2       -0.3045
     25    O      104.7610  112.3060  131.0500 O.3     2  LIG2       -0.3950
     26    O      110.1330  108.5900  125.4970 O.2     2  LIG2       -0.2684
     27    C      112.1220  107.2830  129.2060 C.3     2  LIG2       -0.0287
     28    C      111.3010  104.9020  129.3320 C.3     2  LIG2       -0.0472
     29    C      110.6740  105.0380  127.9290 C.3     2  LIG2       -0.0386
     30    C      110.2590  106.4910  127.6700 C.3     2  LIG2       -0.0287
     31    C      111.6980  104.6360  126.8630 C.3     2  LIG2       -0.0472
     32    H      111.3820  117.0540  124.2750 H       2  LIG2        0.0618
     33    H      109.3100  117.3820  122.9370 H       2  LIG2        0.0618
     34    H      107.5990  115.5770  122.8240 H       2  LIG2        0.0618
     35    H      107.9510  113.4560  124.0640 H       2  LIG2        0.0624
     36    H      111.7270  114.9340  125.5250 H       2  LIG2        0.0624
     37    H      111.0830  110.3610  123.6220 H       2  LIG2        0.0279
     38    H      109.3500  110.5380  123.4630 H       2  LIG2        0.0279
     39    H      110.4120  111.8750  123.0710 H       2  LIG2        0.0279
     40    H      110.7320  113.6710  128.8150 H       2  LIG2        0.0509
     41    H      110.4730  114.7890  127.4980 H       2  LIG2        0.0509
     42    H      108.6530  114.9200  129.2530 H       2  LIG2        0.0283
     43    H      108.0030  114.4940  127.6950 H       2  LIG2        0.0283
     44    H      107.8450  112.1250  128.3110 H       2  LIG2        0.0267
     45    H      108.6700  112.3960  129.8100 H       2  LIG2        0.0267
     46    H      106.7480  113.9980  130.4800 H       2  LIG2        0.0287
     47    H      105.9480  113.5280  129.0070 H       2  LIG2        0.0287
     48    H      105.8530  111.1530  129.7720 H       2  LIG2        0.0557
     49    H      106.6730  111.5900  131.2600 H       2  LIG2        0.0557
     50    H      112.1000  107.1210  125.7300 H       2  LIG2        0.0288
     51    H      113.3960  107.6660  126.7720 H       2  LIG2        0.0288
     52    H      113.6660  105.2950  126.1940 H       2  LIG2        0.0302
     53    H      113.9060  104.3840  128.5400 H       2  LIG2        0.0271
     54    H      114.4690  106.0340  128.4400 H       2  LIG2        0.0271
     55    H      112.9870  105.7170  130.4240 H       2  LIG2        0.0302
     56    H      111.3580  109.4930  128.2390 H       2  LIG2        0.1496
     57    H      104.8860  113.0160  131.6720 H       2  LIG2        0.2094
     58    H      112.9870  107.9420  129.2930 H       2  LIG2        0.0288
     59    H      111.4290  107.5850  129.9920 H       2  LIG2        0.0288
     60    H      111.5830  103.8660  129.5220 H       2  LIG2        0.0271
     61    H      110.5700  105.1640  130.0970 H       2  LIG2        0.0271
     62    H      109.7980  104.3920  127.8580 H       2  LIG2        0.0302
     63    H      109.4950  106.7640  128.3820 H       2  LIG2        0.0288
     64    H      109.8020  106.5830  126.6830 H       2  LIG2        0.0288
     65    H      111.2480  104.7120  125.8750 H       2  LIG2        0.0271
     66    H      111.9420  103.5860  127.0020 H       2  LIG2        0.0271
@<TRIPOS>BOND
     1    34     3    1
     2    33     2    1
     3    39    10    1
     4     3     2   ar
     5     3     4   ar
     6    38    10    1
     7     2     1   ar
     8    37    10    1
     9    10     9    1
    10    35     4    1
    11     4     5   ar
    12     1    32    1
    13     1     6   ar
    14     5     6   ar
    15     5     7    1
    16     6    36    1
    17     9     7   ar
    18     9     8   ar
    19    26    11    2
    20     7    22   ar
    21    50    18    1
    22    65    31    1
    23    52    19    1
    24     8    11    1
    25     8    23   ar
    26    11    24   am
    27    64    30    1
    28    18    51    1
    29    18    19    1
    30    18    17    1
    31    31    19    1
    32    31    66    1
    33    31    29    1
    34    19    20    1
    35    22    23   ar
    36    22    12    1
    37    41    12    1
    38    24    17    1
    39    24    56    1
    40    30    17    1
    41    30    29    1
    42    30    63    1
    43    43    13    1
    44    17    27    1
    45    62    29    1
    46    29    28    1
    47    12    13    1
    48    12    40    1
    49    44    14    1
    50    20    54    1
    51    20    53    1
    52    20    21    1
    53    13    14    1
    54    13    42    1
    55    47    15    1
    56    14    15    1
    57    14    45    1
    58    27    58    1
    59    27    21    1
    60    27    59    1
    61    28    21    1
    62    28    60    1
    63    28    61    1
    64    21    55    1
    65    48    16    1
    66    15    46    1
    67    15    16    1
    68    16    25    1
    69    16    49    1
    70    25    57    1
@<TRIPOS>MOLECULE
5zty_ligand_run_6.pdb
 66 70 0 0 0
SMALL
GASTEIGER

@<TRIPOS>ATOM
      1    C      110.7470  116.4200  123.7060 C.ar    2  LIG2       -0.0611
      2    C      109.4890  116.5690  123.0960 C.ar    2  LIG2       -0.0617
      3    C      108.5580  115.5120  123.1280 C.ar    2  LIG2       -0.0611
      4    C      108.8850  114.3080  123.7800 C.ar    2  LIG2       -0.0526
      5    C      110.1390  114.1540  124.4070 C.ar    2  LIG2        0.0003
      6    C      111.0670  115.2160  124.3650 C.ar    2  LIG2       -0.0526
      7    C      110.4590  112.9320  125.1300 C.ar    2  LIG2        0.0725
      8    C      110.8690  110.9010  125.8500 C.ar    2  LIG2        0.1505
      9    C      110.5780  111.6540  124.6620 C.ar    2  LIG2        0.0072
     10    C      110.4640  111.1890  123.2280 C.3     2  LIG2       -0.0354
     11    C      111.0780  109.4130  125.8370 C.2     2  LIG2        0.2649
     12    C      110.7450  113.9980  127.4570 C.3     2  LIG2        0.0422
     13    C      109.3620  114.2550  128.0810 C.3     2  LIG2       -0.0333
     14    C      108.7330  113.0010  128.7180 C.3     2  LIG2       -0.0493
     15    C      107.4630  113.3410  129.5260 C.3     2  LIG2       -0.0297
     16    C      106.8110  112.1250  130.1980 C.3     2  LIG2        0.0442
     17    C      109.8870  107.2480  125.4140 C.3     2  LIG2        0.0357
     18    C      108.4910  106.9090  124.8500 C.3     2  LIG2       -0.0287
     19    C      108.3070  105.3820  124.8070 C.3     2  LIG2       -0.0386
     20    C      109.3820  104.7520  123.8950 C.3     2  LIG2       -0.0472
     21    C      110.7800  105.0810  124.4590 C.3     2  LIG2       -0.0386
     22    N      110.7120  112.9160  126.4890 N.ar    2  LIG2       -0.2627
     23    N      110.9780  111.6690  126.9160 N.ar    2  LIG2       -0.1657
     24    N      110.0130  108.7010  125.4480 N.am    2  LIG2       -0.3045
     25    O      105.6190  112.4920  130.8610 O.3     2  LIG2       -0.3950
     26    O      112.1290  108.9070  126.2400 O.2     2  LIG2       -0.2684
     27    C      110.9680  106.6120  124.4980 C.3     2  LIG2       -0.0287
     28    C      110.9140  104.5070  125.8860 C.3     2  LIG2       -0.0472
     29    C      109.8320  105.1270  126.7940 C.3     2  LIG2       -0.0386
     30    C      109.9860  106.6520  126.8410 C.3     2  LIG2       -0.0287
     31    C      108.4410  104.8050  126.2380 C.3     2  LIG2       -0.0472
     32    H      111.4650  117.2270  123.6730 H       2  LIG2        0.0618
     33    H      109.2400  117.4910  122.5910 H       2  LIG2        0.0618
     34    H      107.5930  115.6260  122.6540 H       2  LIG2        0.0618
     35    H      108.1620  113.5070  123.8140 H       2  LIG2        0.0624
     36    H      112.0290  115.1080  124.8450 H       2  LIG2        0.0624
     37    H      111.2810  110.5190  122.9640 H       2  LIG2        0.0279
     38    H      109.5370  110.6480  123.0330 H       2  LIG2        0.0279
     39    H      110.5020  112.0180  122.5220 H       2  LIG2        0.0279
     40    H      111.4620  113.7430  128.2380 H       2  LIG2        0.0509
     41    H      111.1360  114.8810  126.9530 H       2  LIG2        0.0509
     42    H      109.4490  115.0400  128.8310 H       2  LIG2        0.0283
     43    H      108.6790  114.6360  127.3230 H       2  LIG2        0.0283
     44    H      108.4860  112.2810  127.9370 H       2  LIG2        0.0267
     45    H      109.4620  112.4970  129.3530 H       2  LIG2        0.0267
     46    H      107.6870  114.1000  130.2780 H       2  LIG2        0.0287
     47    H      106.7410  113.7970  128.8490 H       2  LIG2        0.0287
     48    H      106.5680  111.3690  129.4500 H       2  LIG2        0.0557
     49    H      107.4970  111.6660  130.9080 H       2  LIG2        0.0557
     50    H      107.7100  107.3530  125.4700 H       2  LIG2        0.0288
     51    H      108.3680  107.3260  123.8490 H       2  LIG2        0.0288
     52    H      107.3140  105.1810  124.4100 H       2  LIG2        0.0302
     53    H      109.2550  103.6700  123.8290 H       2  LIG2        0.0271
     54    H      109.2830  105.1330  122.8760 H       2  LIG2        0.0271
     55    H      111.5430  104.6400  123.8160 H       2  LIG2        0.0302
     56    H      109.2020  109.2280  125.1620 H       2  LIG2        0.1496
     57    H      105.8190  113.1560  131.5140 H       2  LIG2        0.2094
     58    H      110.8940  107.0280  123.4920 H       2  LIG2        0.0288
     59    H      111.9750  106.8410  124.8500 H       2  LIG2        0.0288
     60    H      110.8130  103.4220  125.8640 H       2  LIG2        0.0271
     61    H      111.9050  104.7130  126.2900 H       2  LIG2        0.0271
     62    H      109.9270  104.7210  127.8030 H       2  LIG2        0.0302
     63    H      110.9410  106.8890  127.2860 H       2  LIG2        0.0288
     64    H      109.2290  107.0880  127.4960 H       2  LIG2        0.0288
     65    H      107.6790  105.2250  126.8910 H       2  LIG2        0.0271
     66    H      108.3030  103.7270  126.2690 H       2  LIG2        0.0271
@<TRIPOS>BOND
     1    39    10    1
     2    33     2    1
     3    34     3    1
     4    54    20    1
     5    37    10    1
     6    38    10    1
     7     2     3   ar
     8     2     1   ar
     9     3     4   ar
    10    10     9    1
    11    58    27    1
    12    32     1    1
    13     1     6   ar
    14     4    35    1
    15     4     5   ar
    16    55    21    1
    17    53    20    1
    18    51    18    1
    19    20    21    1
    20    20    19    1
    21     6     5   ar
    22     6    36    1
    23     5     7    1
    24    52    19    1
    25    21    27    1
    26    21    28    1
    27    27    59    1
    28    27    17    1
    29     9     7   ar
    30     9     8   ar
    31    19    18    1
    32    19    31    1
    33    18    17    1
    34    18    50    1
    35     7    22   ar
    36    56    24    1
    37    17    24    1
    38    17    30    1
    39    24    11   am
    40    11     8    1
    41    11    26    2
    42     8    23   ar
    43    60    28    1
    44    28    61    1
    45    28    29    1
    46    31    66    1
    47    31    29    1
    48    31    65    1
    49    22    23   ar
    50    22    12    1
    51    29    30    1
    52    29    62    1
    53    30    63    1
    54    30    64    1
    55    41    12    1
    56    43    13    1
    57    12    13    1
    58    12    40    1
    59    44    14    1
    60    13    14    1
    61    13    42    1
    62    14    45    1
    63    14    15    1
    64    47    15    1
    65    48    16    1
    66    15    16    1
    67    15    46    1
    68    16    25    1
    69    16    49    1
    70    25    57    1
@<TRIPOS>MOLECULE
5zty_ligand_run_5.pdb
 66 70 0 0 0
SMALL
GASTEIGER

@<TRIPOS>ATOM
      1    C      110.4660  116.4650  125.0450 C.ar    2  LIG2       -0.0611
      2    C      111.1300  117.1740  126.0620 C.ar    2  LIG2       -0.0617
      3    C      111.5410  116.5090  127.2350 C.ar    2  LIG2       -0.0611
      4    C      111.2920  115.1320  127.3840 C.ar    2  LIG2       -0.0526
      5    C      110.6400  114.4100  126.3640 C.ar    2  LIG2        0.0003
      6    C      110.2280  115.0850  125.1950 C.ar    2  LIG2       -0.0526
      7    C      110.4320  112.9740  126.4910 C.ar    2  LIG2        0.0725
      8    C      110.2940  110.7940  126.3000 C.ar    2  LIG2        0.1505
      9    C      110.8180  111.9650  125.6540 C.ar    2  LIG2        0.0072
     10    C      111.6320  112.0860  124.3870 C.3     2  LIG2       -0.0354
     11    C      110.4630  109.4120  125.7350 C.2     2  LIG2        0.2649
     12    C      109.1890  113.0270  128.7460 C.3     2  LIG2        0.0422
     13    C      107.6990  113.3530  128.5480 C.3     2  LIG2       -0.0333
     14    C      106.9820  113.7600  129.8500 C.3     2  LIG2       -0.0493
     15    C      105.5320  114.2200  129.5890 C.3     2  LIG2       -0.0297
     16    C      104.7150  114.4510  130.8670 C.3     2  LIG2        0.0442
     17    C      110.6650  107.0060  126.4080 C.3     2  LIG2        0.0357
     18    C      112.1050  106.8350  125.8770 C.3     2  LIG2       -0.0287
     19    C      112.3810  105.3470  125.6020 C.3     2  LIG2       -0.0386
     20    C      112.2300  104.5370  126.9100 C.3     2  LIG2       -0.0472
     21    C      110.7900  104.6990  127.4410 C.3     2  LIG2       -0.0386
     22    N      109.7720  112.4110  127.5670 N.ar    2  LIG2       -0.2627
     23    N      109.7080  111.0730  127.4480 N.ar    2  LIG2       -0.1657
     24    N      110.4440  108.4280  126.6430 N.am    2  LIG2       -0.3045
     25    O      104.2880  113.2240  131.4250 O.3     2  LIG2       -0.3950
     26    O      110.6890  109.2300  124.5350 O.2     2  LIG2       -0.2684
     27    C      110.5130  106.1900  127.7220 C.3     2  LIG2       -0.0287
     28    C      109.7860  104.1750  126.3910 C.3     2  LIG2       -0.0472
     29    C      109.9460  104.9750  125.0810 C.3     2  LIG2       -0.0386
     30    C      109.6890  106.4650  125.3330 C.3     2  LIG2       -0.0287
     31    C      111.3740  104.8190  124.5500 C.3     2  LIG2       -0.0472
     32    H      110.1430  116.9760  124.1500 H       2  LIG2        0.0618
     33    H      111.3160  118.2320  125.9490 H       2  LIG2        0.0618
     34    H      112.0460  117.0570  128.0180 H       2  LIG2        0.0618
     35    H      111.6220  114.6250  128.2780 H       2  LIG2        0.0624
     36    H      109.7300  114.5390  124.4080 H       2  LIG2        0.0624
     37    H      112.4320  111.3480  124.3590 H       2  LIG2        0.0279
     38    H      111.0340  111.9370  123.4870 H       2  LIG2        0.0279
     39    H      112.1080  113.0630  124.2940 H       2  LIG2        0.0279
     40    H      109.3100  112.3450  129.5890 H       2  LIG2        0.0509
     41    H      109.7750  113.9150  128.9790 H       2  LIG2        0.0509
     42    H      107.6020  114.1520  127.8140 H       2  LIG2        0.0283
     43    H      107.1840  112.4920  128.1260 H       2  LIG2        0.0283
     44    H      106.9780  112.9170  130.5420 H       2  LIG2        0.0267
     45    H      107.5410  114.5450  130.3580 H       2  LIG2        0.0267
     46    H      105.5280  115.1270  128.9810 H       2  LIG2        0.0287
     47    H      105.0360  113.4570  128.9890 H       2  LIG2        0.0287
     48    H      105.3200  114.9720  131.6100 H       2  LIG2        0.0557
     49    H      103.8480  115.0770  130.6610 H       2  LIG2        0.0557
     50    H      112.2430  107.4070  124.9580 H       2  LIG2        0.0288
     51    H      112.8300  107.2200  126.5960 H       2  LIG2        0.0288
     52    H      113.3990  105.2640  125.2260 H       2  LIG2        0.0302
     53    H      112.4460  103.4800  126.7430 H       2  LIG2        0.0271
     54    H      112.9510  104.8830  127.6520 H       2  LIG2        0.0271
     55    H      110.6800  104.1310  128.3650 H       2  LIG2        0.0302
     56    H      110.2730  108.7050  127.5980 H       2  LIG2        0.1496
     57    H      105.0150  112.8280  131.8960 H       2  LIG2        0.2094
     58    H      111.2050  106.5680  128.4750 H       2  LIG2        0.0288
     59    H      109.5130  106.2970  128.1440 H       2  LIG2        0.0288
     60    H      109.9550  103.1130  126.2090 H       2  LIG2        0.0271
     61    H      108.7650  104.2620  126.7620 H       2  LIG2        0.0271
     62    H      109.2360  104.6040  124.3400 H       2  LIG2        0.0302
     63    H      108.6660  106.5900  125.6530 H       2  LIG2        0.0288
     64    H      109.7870  107.0280  124.4030 H       2  LIG2        0.0288
     65    H      111.4790  105.3660  123.6150 H       2  LIG2        0.0271
     66    H      111.5350  103.7720  124.3050 H       2  LIG2        0.0271
@<TRIPOS>BOND
     1    38    10    1
     2    65    31    1
     3    32     1    1
     4    39    10    1
     5    66    31    1
     6    62    29    1
     7    37    10    1
     8    10     9    1
     9    64    30    1
    10    36     6    1
    11    26    11    2
    12    31    29    1
    13    31    19    1
    14    50    18    1
    15     1     6   ar
    16     1     2   ar
    17    29    30    1
    18    29    28    1
    19     6     5   ar
    20    52    19    1
    21    30    63    1
    22    30    17    1
    23    19    18    1
    24    19    20    1
    25     9     8   ar
    26     9     7   ar
    27    11     8    1
    28    11    24   am
    29    18    17    1
    30    18    51    1
    31    33     2    1
    32     2     3   ar
    33    60    28    1
    34     8    23   ar
    35     5     7    1
    36     5     4   ar
    37    28    61    1
    38    28    21    1
    39    17    24    1
    40    17    27    1
    41     7    22   ar
    42    24    56    1
    43    53    20    1
    44    20    21    1
    45    20    54    1
    46     3     4   ar
    47     3    34    1
    48     4    35    1
    49    21    27    1
    50    21    55    1
    51    23    22   ar
    52    22    12    1
    53    27    59    1
    54    27    58    1
    55    42    13    1
    56    43    13    1
    57    13    12    1
    58    13    14    1
    59    12    41    1
    60    12    40    1
    61    46    15    1
    62    47    15    1
    63    15    14    1
    64    15    16    1
    65    14    45    1
    66    14    44    1
    67    49    16    1
    68    16    25    1
    69    16    48    1
    70    25    57    1
@<TRIPOS>MOLECULE
5zty_ligand_run_9.pdb
 66 70 0 0 0
SMALL
GASTEIGER

@<TRIPOS>ATOM
      1    C      110.8380  116.4080  123.4370 C.ar    2  LIG2       -0.0611
      2    C      109.6330  116.8890  122.8930 C.ar    2  LIG2       -0.0617
      3    C      108.4990  116.0550  122.8420 C.ar    2  LIG2       -0.0611
      4    C      108.5690  114.7430  123.3430 C.ar    2  LIG2       -0.0526
      5    C      109.7680  114.2560  123.9040 C.ar    2  LIG2        0.0003
      6    C      110.9010  115.0960  123.9460 C.ar    2  LIG2       -0.0526
      7    C      109.8280  112.9180  124.4750 C.ar    2  LIG2        0.0725
      8    C      110.0180  110.7830  124.9430 C.ar    2  LIG2        0.1505
      9    C      110.2060  111.7420  123.8900 C.ar    2  LIG2        0.0072
     10    C      110.7290  111.5440  122.4860 C.3     2  LIG2       -0.0354
     11    C      110.3000  109.3190  124.7660 C.2     2  LIG2        0.2649
     12    C      109.0540  113.5450  126.8490 C.3     2  LIG2        0.0422
     13    C      109.9270  113.4120  128.1100 C.3     2  LIG2       -0.0333
     14    C      111.3700  113.9160  127.9130 C.3     2  LIG2       -0.0493
     15    C      111.5050  115.4170  128.2440 C.3     2  LIG2       -0.0297
     16    C      111.3640  116.3360  127.0230 C.3     2  LIG2        0.0442
     17    C      110.7620  107.2190  126.0560 C.3     2  LIG2        0.0357
     18    C      110.7480  106.8870  127.5630 C.3     2  LIG2       -0.0287
     19    C      111.1260  105.4110  127.7710 C.3     2  LIG2       -0.0386
     20    C      110.1050  104.5030  127.0490 C.3     2  LIG2       -0.0472
     21    C      110.1190  104.8260  125.5410 C.3     2  LIG2       -0.0386
     22    N      109.4910  112.6550  125.7900 N.ar    2  LIG2       -0.2627
     23    N      109.6270  111.3470  126.0700 N.ar    2  LIG2       -0.1657
     24    N      110.4110  108.6270  125.9070 N.am    2  LIG2       -0.3045
     25    O      111.6670  117.6750  127.3590 O.3     2  LIG2       -0.3950
     26    O      110.4970  108.8310  123.6500 O.2     2  LIG2       -0.2684
     27    C      109.7360  106.3060  125.3300 C.3     2  LIG2       -0.0287
     28    C      111.5310  104.5710  124.9680 C.3     2  LIG2       -0.0472
     29    C      112.5530  105.4670  125.6970 C.3     2  LIG2       -0.0386
     30    C      112.1890  106.9460  125.5170 C.3     2  LIG2       -0.0287
     31    C      112.5410  105.1530  127.1960 C.3     2  LIG2       -0.0472
     32    H      111.7110  117.0440  123.4680 H       2  LIG2        0.0618
     33    H      109.5820  117.8950  122.5030 H       2  LIG2        0.0618
     34    H      107.5750  116.4250  122.4180 H       2  LIG2        0.0618
     35    H      107.6920  114.1140  123.3150 H       2  LIG2        0.0624
     36    H      111.8230  114.7330  124.3760 H       2  LIG2        0.0624
     37    H      111.6190  110.9170  122.4810 H       2  LIG2        0.0279
     38    H      110.0010  111.0640  121.8300 H       2  LIG2        0.0279
     39    H      111.0090  112.4850  122.0140 H       2  LIG2        0.0279
     40    H      109.0930  114.5700  126.4790 H       2  LIG2        0.0509
     41    H      108.0060  113.3290  127.0540 H       2  LIG2        0.0509
     42    H      109.4590  113.9580  128.9280 H       2  LIG2        0.0283
     43    H      109.9660  112.3710  128.4250 H       2  LIG2        0.0283
     44    H      112.0460  113.3410  128.5470 H       2  LIG2        0.0267
     45    H      111.7000  113.7230  126.8930 H       2  LIG2        0.0267
     46    H      110.7750  115.7020  129.0050 H       2  LIG2        0.0287
     47    H      112.4840  115.5800  128.6940 H       2  LIG2        0.0287
     48    H      112.0460  116.0180  126.2340 H       2  LIG2        0.0557
     49    H      110.3550  116.2830  126.6170 H       2  LIG2        0.0557
     50    H      111.4540  107.5230  128.1000 H       2  LIG2        0.0288
     51    H      109.7640  107.0830  127.9930 H       2  LIG2        0.0288
     52    H      111.1110  105.2140  128.8410 H       2  LIG2        0.0302
     53    H      110.3390  103.4490  127.2050 H       2  LIG2        0.0271
     54    H      109.1060  104.6580  127.4620 H       2  LIG2        0.0271
     55    H      109.3980  104.1900  125.0280 H       2  LIG2        0.0302
     56    H      110.2500  109.1420  126.7600 H       2  LIG2        0.1496
     57    H      111.5510  118.2220  126.5880 H       2  LIG2        0.2094
     58    H      108.7330  106.4950  125.7150 H       2  LIG2        0.0288
     59    H      109.6990  106.5180  124.2610 H       2  LIG2        0.0288
     60    H      111.7980  103.5210  125.0850 H       2  LIG2        0.0271
     61    H      111.5510  104.7730  123.8970 H       2  LIG2        0.0271
     62    H      113.5500  105.2870  125.2920 H       2  LIG2        0.0302
     63    H      112.2510  107.1900  124.4670 H       2  LIG2        0.0288
     64    H      112.9210  107.5800  126.0200 H       2  LIG2        0.0288
     65    H      113.2770  105.7700  127.7070 H       2  LIG2        0.0271
     66    H      112.8660  104.1240  127.3310 H       2  LIG2        0.0271
@<TRIPOS>BOND
     1    38    10    1
     2    39    10    1
     3    34     3    1
     4    37    10    1
     5    10     9    1
     6    33     2    1
     7     3     2   ar
     8     3     4   ar
     9     2     1   ar
    10    35     4    1
    11     4     5   ar
    12     1    32    1
    13     1     6   ar
    14    26    11    2
    15     9     7   ar
    16     9     8   ar
    17    61    28    1
    18     5     6   ar
    19     5     7    1
    20     6    36    1
    21    59    27    1
    22    63    30    1
    23     7    22   ar
    24    11     8    1
    25    11    24   am
    26     8    23   ar
    27    28    60    1
    28    28    21    1
    29    28    29    1
    30    55    21    1
    31    62    29    1
    32    27    21    1
    33    27    58    1
    34    27    17    1
    35    30    29    1
    36    30    64    1
    37    30    17    1
    38    21    20    1
    39    29    31    1
    40    22    23   ar
    41    22    12    1
    42    24    17    1
    43    24    56    1
    44    17    18    1
    45    48    16    1
    46    40    12    1
    47    57    25    1
    48    49    16    1
    49    12    41    1
    50    12    13    1
    51    45    14    1
    52    16    25    1
    53    16    15    1
    54    20    53    1
    55    20    54    1
    56    20    19    1
    57    31    66    1
    58    31    65    1
    59    31    19    1
    60    18    19    1
    61    18    51    1
    62    18    50    1
    63    19    52    1
    64    14    13    1
    65    14    15    1
    66    14    44    1
    67    13    43    1
    68    13    42    1
    69    15    47    1
    70    15    46    1
@<TRIPOS>MOLECULE
5zty_ligand_run_7.pdb
 66 70 0 0 0
SMALL
GASTEIGER

@<TRIPOS>ATOM
      1    C      111.2820  104.8600  129.3070 C.ar    2  LIG2       -0.0611
      2    C      111.9980  103.7340  128.8600 C.ar    2  LIG2       -0.0617
      3    C      112.2450  103.5550  127.4850 C.ar    2  LIG2       -0.0611
      4    C      111.7830  104.5070  126.5580 C.ar    2  LIG2       -0.0526
      5    C      111.0770  105.6460  126.9980 C.ar    2  LIG2        0.0003
      6    C      110.8290  105.8150  128.3760 C.ar    2  LIG2       -0.0526
      7    C      110.6460  106.6620  126.0480 C.ar    2  LIG2        0.0725
      8    C      110.2130  108.4560  124.8630 C.ar    2  LIG2        0.1505
      9    C      110.9780  107.9860  125.9840 C.ar    2  LIG2        0.0072
     10    C      111.9480  108.7310  126.8720 C.3     2  LIG2       -0.0354
     11    C      110.2450  109.8860  124.4020 C.2     2  LIG2        0.2649
     12    C      109.1620  105.1380  124.5970 C.3     2  LIG2        0.0422
     13    C      107.7740  104.9540  125.2350 C.3     2  LIG2       -0.0333
     14    C      106.8350  104.0510  124.4120 C.3     2  LIG2       -0.0493
     15    C      106.2670  104.7850  123.1790 C.3     2  LIG2       -0.0297
     16    C      105.2300  103.9680  122.3950 C.3     2  LIG2        0.0442
     17    C      109.9840  112.2390  125.2250 C.3     2  LIG2        0.0357
     18    C      111.3190  112.7430  124.6350 C.3     2  LIG2       -0.0287
     19    C      111.2670  114.2720  124.4710 C.3     2  LIG2       -0.0386
     20    C      110.1190  114.6560  123.5110 C.3     2  LIG2       -0.0472
     21    C      108.7820  114.1610  124.1000 C.3     2  LIG2       -0.0386
     22    N      109.7850  106.3840  125.0020 N.ar    2  LIG2       -0.2627
     23    N      109.5410  107.4870  124.2720 N.ar    2  LIG2       -0.1657
     24    N      110.0830  110.7920  125.3740 N.am    2  LIG2       -0.3045
     25    O      105.7930  102.7660  121.9110 O.3     2  LIG2       -0.3950
     26    O      110.3270  110.1750  123.2050 O.2     2  LIG2       -0.2684
     27    C      108.8300  112.6270  124.2610 C.3     2  LIG2       -0.0287
     28    C      108.5440  114.8190  125.4770 C.3     2  LIG2       -0.0472
     29    C      109.6970  114.4450  126.4310 C.3     2  LIG2       -0.0386
     30    C      109.7780  112.9240  126.6000 C.3     2  LIG2       -0.0287
     31    C      111.0290  114.9330  125.8510 C.3     2  LIG2       -0.0472
     32    H      111.0830  104.9930  130.3610 H       2  LIG2        0.0618
     33    H      112.3470  103.0000  129.5710 H       2  LIG2        0.0618
     34    H      112.7910  102.6860  127.1430 H       2  LIG2        0.0618
     35    H      111.9890  104.3720  125.5070 H       2  LIG2        0.0624
     36    H      110.2910  106.6850  128.7230 H       2  LIG2        0.0624
     37    H      112.6280  109.3460  126.2840 H       2  LIG2        0.0279
     38    H      111.4480  109.3980  127.5750 H       2  LIG2        0.0279
     39    H      112.5700  108.0570  127.4600 H       2  LIG2        0.0279
     40    H      109.0730  105.1310  123.5100 H       2  LIG2        0.0509
     41    H      109.8410  104.3270  124.8570 H       2  LIG2        0.0509
     42    H      107.8930  104.5400  126.2350 H       2  LIG2        0.0283
     43    H      107.2950  105.9230  125.3640 H       2  LIG2        0.0283
     44    H      107.3760  103.1610  124.0890 H       2  LIG2        0.0267
     45    H      106.0240  103.6820  125.0390 H       2  LIG2        0.0267
     46    H      105.8320  105.7410  123.4760 H       2  LIG2        0.0287
     47    H      107.0970  105.0280  122.5150 H       2  LIG2        0.0287
     48    H      104.3860  103.7170  123.0380 H       2  LIG2        0.0557
     49    H      104.8370  104.5470  121.5600 H       2  LIG2        0.0557
     50    H      112.1510  112.4750  125.2890 H       2  LIG2        0.0288
     51    H      111.5170  112.2730  123.6700 H       2  LIG2        0.0288
     52    H      112.2230  114.5920  124.0580 H       2  LIG2        0.0302
     53    H      110.0800  115.7360  123.3590 H       2  LIG2        0.0271
     54    H      110.2880  114.2150  122.5260 H       2  LIG2        0.0271
     55    H      107.9680  114.4280  123.4240 H       2  LIG2        0.0302
     56    H      110.0030  110.4310  126.3140 H       2  LIG2        0.1496
     57    H      105.2890  102.0300  122.2460 H       2  LIG2        0.2094
     58    H      108.9790  112.1500  123.2920 H       2  LIG2        0.0288
     59    H      107.8660  112.2740  124.6300 H       2  LIG2        0.0288
     60    H      108.4780  115.9010  125.3680 H       2  LIG2        0.0271
     61    H      107.5910  114.4950  125.8950 H       2  LIG2        0.0271
     62    H      109.5290  114.9100  127.4040 H       2  LIG2        0.0302
     63    H      108.8660  112.5790  127.0620 H       2  LIG2        0.0288
     64    H      110.5850  112.6620  127.2870 H       2  LIG2        0.0288
     65    H      111.8390  114.6880  126.5350 H       2  LIG2        0.0271
     66    H      110.9990  116.0180  125.7950 H       2  LIG2        0.0271
@<TRIPOS>BOND
     1    49    16    1
     2    25    57    1
     3    25    16    1
     4    16    48    1
     5    16    15    1
     6    47    15    1
     7    54    20    1
     8    15    46    1
     9    15    14    1
    10    26    11    2
    11    58    27    1
    12    53    20    1
    13    55    21    1
    14    40    12    1
    15    20    21    1
    16    20    19    1
    17    51    18    1
    18    52    19    1
    19    44    14    1
    20    21    27    1
    21    21    28    1
    22    27    59    1
    23    27    17    1
    24    23     8   ar
    25    23    22   ar
    26    11     8    1
    27    11    24   am
    28    14    45    1
    29    14    13    1
    30    19    18    1
    31    19    31    1
    32    12    41    1
    33    12    22    1
    34    12    13    1
    35    18    17    1
    36    18    50    1
    37     8     9   ar
    38    22     7   ar
    39    17    24    1
    40    17    30    1
    41    13    43    1
    42    13    42    1
    43    60    28    1
    44    24    56    1
    45    28    61    1
    46    28    29    1
    47    35     4    1
    48    66    31    1
    49    31    29    1
    50    31    65    1
    51     9     7   ar
    52     9    10    1
    53     7     5    1
    54    37    10    1
    55    29    30    1
    56    29    62    1
    57     4     5   ar
    58     4     3   ar
    59    30    63    1
    60    30    64    1
    61    10    39    1
    62    10    38    1
    63     5     6   ar
    64    34     3    1
    65     3     2   ar
    66     6    36    1
    67     6     1   ar
    68     2     1   ar
    69     2    33    1
    70     1    32    1
@<TRIPOS>MOLECULE
5zty_ligand_run_22.pdb
 66 70 0 0 0
SMALL
GASTEIGER

@<TRIPOS>ATOM
      1    C      110.7170  116.7710  123.6430 C.ar    2  LIG2       -0.0611
      2    C      109.5830  117.2080  122.9350 C.ar    2  LIG2       -0.0617
      3    C      108.5300  116.3110  122.6650 C.ar    2  LIG2       -0.0611
      4    C      108.6100  114.9790  123.1110 C.ar    2  LIG2       -0.0526
      5    C      109.7370  114.5350  123.8340 C.ar    2  LIG2        0.0003
      6    C      110.7890  115.4380  124.0950 C.ar    2  LIG2       -0.0526
      7    C      109.7980  113.1740  124.3450 C.ar    2  LIG2        0.0725
      8    C      109.9140  111.0140  124.7090 C.ar    2  LIG2        0.1505
      9    C      109.9890  112.0020  123.6690 C.ar    2  LIG2        0.0072
     10    C      110.2530  111.8290  122.1910 C.3     2  LIG2       -0.0354
     11    C      110.0590  109.5430  124.4430 C.2     2  LIG2        0.2649
     12    C      109.4810  113.7490  126.8350 C.3     2  LIG2        0.0422
     13    C      108.2530  113.3450  127.6700 C.3     2  LIG2       -0.0333
     14    C      108.5820  113.0720  129.1510 C.3     2  LIG2       -0.0493
     15    C      109.0590  111.6220  129.3760 C.3     2  LIG2       -0.0297
     16    C      110.5230  111.3830  128.9800 C.3     2  LIG2        0.0442
     17    C      110.4200  107.3450  125.5940 C.3     2  LIG2        0.0357
     18    C      111.7730  107.0650  124.9040 C.3     2  LIG2       -0.0287
     19    C      112.0610  105.5540  124.9270 C.3     2  LIG2       -0.0386
     20    C      112.1320  105.0580  126.3890 C.3     2  LIG2       -0.0472
     21    C      110.7810  105.3300  127.0810 C.3     2  LIG2       -0.0386
     22    N      109.6690  112.8780  125.6900 N.ar    2  LIG2       -0.2627
     23    N      109.7590  111.5530  125.9030 N.ar    2  LIG2       -0.1657
     24    N      110.1820  108.7830  125.5380 N.am    2  LIG2       -0.3045
     25    O      111.0400  110.2350  129.6230 O.3     2  LIG2       -0.3950
     26    O      110.1430  109.1020  123.2930 O.2     2  LIG2       -0.2684
     27    C      110.4920  106.8450  127.0630 C.3     2  LIG2       -0.0287
     28    C      109.6550  104.5790  126.3370 C.3     2  LIG2       -0.0472
     29    C      109.5920  105.0650  124.8740 C.3     2  LIG2       -0.0386
     30    C      109.3190  106.5730  124.8250 C.3     2  LIG2       -0.0287
     31    C      110.9320  104.8000  124.1810 C.3     2  LIG2       -0.0472
     32    H      111.5290  117.4550  123.8420 H       2  LIG2        0.0618
     33    H      109.5240  118.2290  122.5880 H       2  LIG2        0.0618
     34    H      107.6610  116.6480  122.1160 H       2  LIG2        0.0618
     35    H      107.7940  114.3010  122.9140 H       2  LIG2        0.0624
     36    H      111.6550  115.1080  124.6500 H       2  LIG2        0.0624
     37    H      111.0830  111.1460  122.0150 H       2  LIG2        0.0279
     38    H      109.3930  111.4240  121.6550 H       2  LIG2        0.0279
     39    H      110.5150  112.7690  121.7070 H       2  LIG2        0.0279
     40    H      110.3780  113.7090  127.4530 H       2  LIG2        0.0509
     41    H      109.4050  114.7710  126.4650 H       2  LIG2        0.0509
     42    H      107.5010  114.1300  127.6030 H       2  LIG2        0.0283
     43    H      107.7960  112.4520  127.2480 H       2  LIG2        0.0283
     44    H      109.3530  113.7650  129.4860 H       2  LIG2        0.0267
     45    H      107.7140  113.2850  129.7740 H       2  LIG2        0.0267
     46    H      108.9080  111.3320  130.4180 H       2  LIG2        0.0287
     47    H      108.4240  110.9590  128.7870 H       2  LIG2        0.0287
     48    H      110.6010  111.2370  127.9030 H       2  LIG2        0.0557
     49    H      111.1350  112.2470  129.2330 H       2  LIG2        0.0557
     50    H      111.7540  107.4170  123.8710 H       2  LIG2        0.0288
     51    H      112.5790  107.6050  125.4030 H       2  LIG2        0.0288
     52    H      113.0160  105.3940  124.4300 H       2  LIG2        0.0302
     53    H      112.3620  103.9920  126.4300 H       2  LIG2        0.0271
     54    H      112.9410  105.5650  126.9200 H       2  LIG2        0.0271
     55    H      110.8280  104.9830  128.1140 H       2  LIG2        0.0302
     56    H      110.1190  109.2620  126.4240 H       2  LIG2        0.1496
     57    H      111.2560  110.4540  130.5240 H       2  LIG2        0.2094
     58    H      111.2710  107.3850  127.6020 H       2  LIG2        0.0288
     59    H      109.5600  107.0390  127.5960 H       2  LIG2        0.0288
     60    H      109.8350  103.5050  126.3710 H       2  LIG2        0.0271
     61    H      108.6960  104.7430  126.8280 H       2  LIG2        0.0271
     62    H      108.7960  104.5350  124.3480 H       2  LIG2        0.0302
     63    H      108.3490  106.7620  125.2590 H       2  LIG2        0.0288
     64    H      109.2600  106.9130  123.7890 H       2  LIG2        0.0288
     65    H      110.8800  105.1240  123.1440 H       2  LIG2        0.0271
     66    H      111.0950  103.7260  124.1530 H       2  LIG2        0.0271
@<TRIPOS>BOND
     1    38    10    1
     2    39    10    1
     3    37    10    1
     4    34     3    1
     5    10     9    1
     6    33     2    1
     7     3     2   ar
     8     3     4   ar
     9    35     4    1
    10     2     1   ar
    11     4     5   ar
    12    65    31    1
    13    26    11    2
    14     1    32    1
    15     1     6   ar
    16     9     7   ar
    17     9     8   ar
    18    64    30    1
    19     5     6   ar
    20     5     7    1
    21    50    18    1
    22     6    36    1
    23    66    31    1
    24    31    29    1
    25    31    19    1
    26     7    22   ar
    27    62    29    1
    28    52    19    1
    29    11     8    1
    30    11    24   am
    31     8    23   ar
    32    30    29    1
    33    30    63    1
    34    30    17    1
    35    29    28    1
    36    18    19    1
    37    18    51    1
    38    18    17    1
    39    19    20    1
    40    24    17    1
    41    24    56    1
    42    17    27    1
    43    22    23   ar
    44    22    12    1
    45    28    60    1
    46    28    61    1
    47    28    21    1
    48    20    53    1
    49    20    54    1
    50    20    21    1
    51    41    12    1
    52    12    40    1
    53    12    13    1
    54    27    21    1
    55    27    59    1
    56    27    58    1
    57    21    55    1
    58    43    13    1
    59    42    13    1
    60    13    14    1
    61    48    16    1
    62    47    15    1
    63    16    49    1
    64    16    15    1
    65    16    25    1
    66    14    15    1
    67    14    44    1
    68    14    45    1
    69    15    46    1
    70    25    57    1
@<TRIPOS>MOLECULE
5zty_ligand_run_17.pdb
 66 70 0 0 0
SMALL
GASTEIGER

@<TRIPOS>ATOM
      1    C      112.5460  104.5170  127.4770 C.ar    2  LIG2       -0.0611
      2    C      111.4600  103.7280  127.8980 C.ar    2  LIG2       -0.0617
      3    C      110.1470  104.2310  127.8150 C.ar    2  LIG2       -0.0611
      4    C      109.9200  105.5220  127.3030 C.ar    2  LIG2       -0.0526
      5    C      111.0000  106.3150  126.8660 C.ar    2  LIG2        0.0003
      6    C      112.3130  105.8060  126.9570 C.ar    2  LIG2       -0.0526
      7    C      110.7650  107.6290  126.2830 C.ar    2  LIG2        0.0725
      8    C      110.3880  109.7370  125.8070 C.ar    2  LIG2        0.1505
      9    C      110.6440  108.8420  126.9010 C.ar    2  LIG2        0.0072
     10    C      110.7900  109.1370  128.3760 C.3     2  LIG2       -0.0354
     11    C      110.1720  111.2110  125.9980 C.2     2  LIG2        0.2649
     12    C      110.7080  106.8840  123.8190 C.3     2  LIG2        0.0422
     13    C      109.3230  106.5920  123.2160 C.3     2  LIG2       -0.0333
     14    C      108.5220  105.5360  124.0030 C.3     2  LIG2       -0.0493
     15    C      107.1460  105.2630  123.3610 C.3     2  LIG2       -0.0297
     16    C      106.4540  103.9990  123.8900 C.3     2  LIG2        0.0442
     17    C      110.0770  113.3790  124.7450 C.3     2  LIG2        0.0357
     18    C      110.1040  113.7260  123.2400 C.3     2  LIG2       -0.0287
     19    C      110.0140  115.2510  123.0590 C.3     2  LIG2       -0.0386
     20    C      108.6930  115.7720  123.6690 C.3     2  LIG2       -0.0472
     21    C      108.6640  115.4340  125.1740 C.3     2  LIG2       -0.0386
     22    N      110.6340  107.8260  124.9210 N.ar    2  LIG2       -0.2627
     23    N      110.4200  109.1230  124.6390 N.ar    2  LIG2       -0.1657
     24    N      110.1770  111.9300  124.8690 N.am    2  LIG2       -0.3045
     25    O      106.2920  104.0600  125.2930 O.3     2  LIG2       -0.3950
     26    O      110.0860  111.7080  127.1250 O.2     2  LIG2       -0.2684
     27    C      108.7490  113.9050  125.3580 C.3     2  LIG2       -0.0287
     28    C      109.8600  116.1090  125.8820 C.3     2  LIG2       -0.0472
     29    C      111.1780  115.5980  125.2650 C.3     2  LIG2       -0.0386
     30    C      111.2850  114.0760  125.4200 C.3     2  LIG2       -0.0287
     31    C      111.2120  115.9280  123.7690 C.3     2  LIG2       -0.0472
     32    H      113.5540  104.1360  127.5500 H       2  LIG2        0.0618
     33    H      111.6350  102.7390  128.2960 H       2  LIG2        0.0618
     34    H      109.3140  103.6240  128.1440 H       2  LIG2        0.0618
     35    H      108.9100  105.8950  127.2280 H       2  LIG2        0.0624
     36    H      113.1460  106.4060  126.6220 H       2  LIG2        0.0624
     37    H      111.4280  110.0040  128.5440 H       2  LIG2        0.0279
     38    H      109.8350  109.3510  128.8590 H       2  LIG2        0.0279
     39    H      111.2420  108.3090  128.9200 H       2  LIG2        0.0279
     40    H      111.3650  107.2980  123.0530 H       2  LIG2        0.0509
     41    H      111.1930  105.9810  124.1870 H       2  LIG2        0.0509
     42    H      108.7530  107.5180  123.1650 H       2  LIG2        0.0283
     43    H      109.4320  106.2480  122.1890 H       2  LIG2        0.0283
     44    H      109.0920  104.6080  124.0500 H       2  LIG2        0.0267
     45    H      108.4000  105.8520  125.0380 H       2  LIG2        0.0267
     46    H      106.4890  106.1250  123.4960 H       2  LIG2        0.0287
     47    H      107.2860  105.1620  122.2840 H       2  LIG2        0.0287
     48    H      105.4690  103.8920  123.4350 H       2  LIG2        0.0557
     49    H      107.0280  103.1100  123.6290 H       2  LIG2        0.0557
     50    H      111.0230  113.3580  122.7810 H       2  LIG2        0.0288
     51    H      109.2780  113.2400  122.7170 H       2  LIG2        0.0288
     52    H      110.0400  115.4580  121.9910 H       2  LIG2        0.0302
     53    H      108.5950  116.8500  123.5290 H       2  LIG2        0.0271
     54    H      107.8390  115.3200  123.1610 H       2  LIG2        0.0271
     55    H      107.7320  115.7990  125.6080 H       2  LIG2        0.0302
     56    H      110.2770  111.4110  124.0090 H       2  LIG2        0.1496
     57    H      105.6590  104.7410  125.5020 H       2  LIG2        0.2094
     58    H      107.9000  113.4190  124.8770 H       2  LIG2        0.0288
     59    H      108.6780  113.6660  126.4190 H       2  LIG2        0.0288
     60    H      109.7910  117.1920  125.7840 H       2  LIG2        0.0271
     61    H      109.8390  115.8970  126.9510 H       2  LIG2        0.0271
     62    H      112.0230  116.0740  125.7650 H       2  LIG2        0.0302
     63    H      111.3190  113.8390  126.4730 H       2  LIG2        0.0288
     64    H      112.2250  113.7180  124.9960 H       2  LIG2        0.0288
     65    H      112.1510  115.5870  123.3390 H       2  LIG2        0.0271
     66    H      111.2060  117.0100  123.6590 H       2  LIG2        0.0271
@<TRIPOS>BOND
     1    52    19    1
     2    43    13    1
     3    47    15    1
     4    51    18    1
     5    50    18    1
     6    40    12    1
     7    19    18    1
     8    19    20    1
     9    19    31    1
    10    54    20    1
    11    42    13    1
    12    13    12    1
    13    13    14    1
    14    18    17    1
    15    65    31    1
    16    15    46    1
    17    15    16    1
    18    15    14    1
    19    48    16    1
    20    53    20    1
    21    49    16    1
    22    66    31    1
    23    20    21    1
    24    31    29    1
    25    12    41    1
    26    12    22    1
    27    16    25    1
    28    14    44    1
    29    14    45    1
    30    56    24    1
    31    23    22   ar
    32    23     8   ar
    33    17    24    1
    34    17    27    1
    35    17    30    1
    36    24    11   am
    37    58    27    1
    38    22     7   ar
    39    64    30    1
    40    21    27    1
    41    21    55    1
    42    21    28    1
    43    29    30    1
    44    29    62    1
    45    29    28    1
    46    25    57    1
    47    27    59    1
    48    30    63    1
    49    60    28    1
    50     8    11    1
    51     8     9   ar
    52    28    61    1
    53    11    26    2
    54     7     5    1
    55     7     9   ar
    56    36     6    1
    57     5     6   ar
    58     5     4   ar
    59     9    10    1
    60     6     1   ar
    61    35     4    1
    62     4     3   ar
    63     1    32    1
    64     1     2   ar
    65     3     2   ar
    66     3    34    1
    67     2    33    1
    68    10    37    1
    69    10    38    1
    70    10    39    1
