# Top-energy pose of compounds ranked according to the score (given in kcal/mol).
@<TRIPOS>MOLECULE
6pt0_ligand_run_9.pdb
 58 63 0 0 0
SMALL
GASTEIGER

@<TRIPOS>ATOM
      1    C      112.9980  106.1400  125.2370 C.ar    2  LIG2       -0.0611
      2    N      109.8470  111.9040  127.2000 N.ar    2  LIG2       -0.3330
      3    O      111.2740  109.6810  123.4280 O.2     2  LIG2       -0.2866
      4    C      112.3530  104.6790  125.3560 C.ar    2  LIG2       -0.0612
      5    N      107.6180  112.5570  130.2060 N.3     2  LIG2       -0.2959
      6    O      109.8060  114.6790  127.5490 O.3     2  LIG2       -0.4878
      7    C      111.0250  104.5090  125.1550 C.ar    2  LIG2       -0.0540
      8    O      106.1650  112.5220  132.6760 O.3     2  LIG2       -0.3772
      9    C      110.5700  109.4820  124.3610 C.2     2  LIG2        0.1960
     10    C      110.3200  110.6390  125.3510 C.ar    2  LIG2        0.0505
     11    C      109.9420  110.5880  126.7330 C.ar    2  LIG2        0.0281
     12    C      109.7020  109.3290  127.5760 C.3     2  LIG2       -0.0235
     13    C      110.1220  112.8160  126.2250 C.ar    2  LIG2        0.0926
     14    C      110.4490  112.0540  124.9720 C.ar    2  LIG2        0.0146
     15    C      110.7910  112.7180  123.8060 C.ar    2  LIG2       -0.0517
     16    C      110.7970  114.1380  123.8640 C.ar    2  LIG2       -0.0576
     17    C      110.4890  114.8590  125.0520 C.ar    2  LIG2       -0.0178
     18    C      110.1310  114.0830  126.3210 C.ar    2  LIG2        0.1446
     19    C      109.8940  113.8760  128.7100 C.3     2  LIG2        0.1115
     20    C      109.4790  112.4100  128.5170 C.3     2  LIG2        0.0815
     21    C      107.9950  112.2080  128.8500 C.3     2  LIG2        0.0231
     22    C      107.7830  111.5260  131.1340 C.3     2  LIG2        0.0225
     23    C      107.4960  111.9340  132.5680 C.3     2  LIG2        0.0604
     24    C      105.9140  113.5900  131.7120 C.3     2  LIG2        0.0604
     25    C      106.4250  113.2870  130.3080 C.3     2  LIG2        0.0225
     26    C      109.9640  108.0830  124.5160 C.ar    2  LIG2        0.0300
     27    C      108.4760  107.8800  124.3200 C.ar    2  LIG2       -0.0503
     28    C      107.9630  106.6970  124.4010 C.ar    2  LIG2       -0.0605
     29    C      108.8520  105.5060  124.6990 C.ar    2  LIG2       -0.0540
     30    C      110.1590  105.6810  124.8470 C.ar    2  LIG2       -0.0172
     31    C      110.7450  107.0300  124.7620 C.ar    2  LIG2       -0.0071
     32    C      112.2090  107.2100  124.9840 C.ar    2  LIG2       -0.0533
     33    H      114.0630  106.2710  125.3580 H       2  LIG2        0.0618
     34    H      112.9770  103.8310  125.5970 H       2  LIG2        0.0618
     35    H      110.5920  103.5220  125.2170 H       2  LIG2        0.0624
     36    H      109.8450  108.4440  126.9560 H       2  LIG2        0.0292
     37    H      110.4060  109.3070  128.4070 H       2  LIG2        0.0292
     38    H      108.6830  109.3400  127.9640 H       2  LIG2        0.0292
     39    H      111.0340  112.1570  122.9160 H       2  LIG2        0.0624
     40    H      111.0410  114.7130  122.9830 H       2  LIG2        0.0619
     41    H      110.5120  115.9380  125.0490 H       2  LIG2        0.0655
     42    H      109.2920  114.3200  129.5020 H       2  LIG2        0.0718
     43    H      110.9120  113.9150  129.0990 H       2  LIG2        0.0718
     44    H      110.0450  111.8270  129.2450 H       2  LIG2        0.0574
     45    H      107.3870  112.7800  128.1490 H       2  LIG2        0.0448
     46    H      107.7190  111.1720  128.6550 H       2  LIG2        0.0448
     47    H      108.7980  111.1360  131.0660 H       2  LIG2        0.0449
     48    H      107.1410  110.6880  130.8610 H       2  LIG2        0.0449
     49    H      107.5590  111.0580  133.2140 H       2  LIG2        0.0572
     50    H      108.2410  112.6590  132.8950 H       2  LIG2        0.0572
     51    H      106.3670  114.5140  132.0700 H       2  LIG2        0.0572
     52    H      104.8450  113.7960  131.6710 H       2  LIG2        0.0572
     53    H      105.6440  112.7780  129.7450 H       2  LIG2        0.0449
     54    H      106.5280  114.2210  129.7550 H       2  LIG2        0.0449
     55    H      107.8380  108.7270  124.1110 H       2  LIG2        0.0625
     56    H      106.9020  106.5580  124.2570 H       2  LIG2        0.0618
     57    H      108.4220  104.5190  124.7890 H       2  LIG2        0.0624
     58    H      112.6380  108.2010  124.9430 H       2  LIG2        0.0624
@<TRIPOS>BOND
     1    39    15    1
     2    40    16    1
     3     3     9    2
     4    15    16   ar
     5    15    14   ar
     6    16    17   ar
     7    55    27    1
     8    56    28    1
     9    27    28   ar
    10    27    26   ar
    11     9    26    1
    12     9    10    1
    13    28    29   ar
    14    26    31   ar
    15    29    57    1
    16    29    30   ar
    17    31    30   ar
    18    31    32   ar
    19    30     7   ar
    20    58    32    1
    21    14    10   ar
    22    14    13   ar
    23    32     1   ar
    24    41    17    1
    25    17    18   ar
    26     7    35    1
    27     7     4   ar
    28     1     4   ar
    29     1    33    1
    30    10    11   ar
    31     4    34    1
    32    13    18   ar
    33    13     2   ar
    34    18     6    1
    35    11     2   ar
    36    11    12    1
    37    36    12    1
    38     2    20    1
    39     6    19    1
    40    12    38    1
    41    12    37    1
    42    45    21    1
    43    20    19    1
    44    20    21    1
    45    20    44    1
    46    46    21    1
    47    19    43    1
    48    19    42    1
    49    21     5    1
    50    53    25    1
    51    54    25    1
    52     5    25    1
    53     5    22    1
    54    25    24    1
    55    48    22    1
    56    47    22    1
    57    22    23    1
    58    52    24    1
    59    24    51    1
    60    24     8    1
    61    23     8    1
    62    23    50    1
    63    23    49    1
