@<TRIPOS>MOLECULE
6pt0_ligand_run_9.pdb
 58 63 0 0 0
SMALL
GASTEIGER

@<TRIPOS>ATOM
      1    C      112.9980  106.1400  125.2370 C.ar    2  LIG2       -0.0611
      2    N      109.8470  111.9040  127.2000 N.ar    2  LIG2       -0.3330
      3    O      111.2740  109.6810  123.4280 O.2     2  LIG2       -0.2866
      4    C      112.3530  104.6790  125.3560 C.ar    2  LIG2       -0.0612
      5    N      107.6180  112.5570  130.2060 N.3     2  LIG2       -0.2959
      6    O      109.8060  114.6790  127.5490 O.3     2  LIG2       -0.4878
      7    C      111.0250  104.5090  125.1550 C.ar    2  LIG2       -0.0540
      8    O      106.1650  112.5220  132.6760 O.3     2  LIG2       -0.3772
      9    C      110.5700  109.4820  124.3610 C.2     2  LIG2        0.1960
     10    C      110.3200  110.6390  125.3510 C.ar    2  LIG2        0.0505
     11    C      109.9420  110.5880  126.7330 C.ar    2  LIG2        0.0281
     12    C      109.7020  109.3290  127.5760 C.3     2  LIG2       -0.0235
     13    C      110.1220  112.8160  126.2250 C.ar    2  LIG2        0.0926
     14    C      110.4490  112.0540  124.9720 C.ar    2  LIG2        0.0146
     15    C      110.7910  112.7180  123.8060 C.ar    2  LIG2       -0.0517
     16    C      110.7970  114.1380  123.8640 C.ar    2  LIG2       -0.0576
     17    C      110.4890  114.8590  125.0520 C.ar    2  LIG2       -0.0178
     18    C      110.1310  114.0830  126.3210 C.ar    2  LIG2        0.1446
     19    C      109.8940  113.8760  128.7100 C.3     2  LIG2        0.1115
     20    C      109.4790  112.4100  128.5170 C.3     2  LIG2        0.0815
     21    C      107.9950  112.2080  128.8500 C.3     2  LIG2        0.0231
     22    C      107.7830  111.5260  131.1340 C.3     2  LIG2        0.0225
     23    C      107.4960  111.9340  132.5680 C.3     2  LIG2        0.0604
     24    C      105.9140  113.5900  131.7120 C.3     2  LIG2        0.0604
     25    C      106.4250  113.2870  130.3080 C.3     2  LIG2        0.0225
     26    C      109.9640  108.0830  124.5160 C.ar    2  LIG2        0.0300
     27    C      108.4760  107.8800  124.3200 C.ar    2  LIG2       -0.0503
     28    C      107.9630  106.6970  124.4010 C.ar    2  LIG2       -0.0605
     29    C      108.8520  105.5060  124.6990 C.ar    2  LIG2       -0.0540
     30    C      110.1590  105.6810  124.8470 C.ar    2  LIG2       -0.0172
     31    C      110.7450  107.0300  124.7620 C.ar    2  LIG2       -0.0071
     32    C      112.2090  107.2100  124.9840 C.ar    2  LIG2       -0.0533
     33    H      114.0630  106.2710  125.3580 H       2  LIG2        0.0618
     34    H      112.9770  103.8310  125.5970 H       2  LIG2        0.0618
     35    H      110.5920  103.5220  125.2170 H       2  LIG2        0.0624
     36    H      109.8450  108.4440  126.9560 H       2  LIG2        0.0292
     37    H      110.4060  109.3070  128.4070 H       2  LIG2        0.0292
     38    H      108.6830  109.3400  127.9640 H       2  LIG2        0.0292
     39    H      111.0340  112.1570  122.9160 H       2  LIG2        0.0624
     40    H      111.0410  114.7130  122.9830 H       2  LIG2        0.0619
     41    H      110.5120  115.9380  125.0490 H       2  LIG2        0.0655
     42    H      109.2920  114.3200  129.5020 H       2  LIG2        0.0718
     43    H      110.9120  113.9150  129.0990 H       2  LIG2        0.0718
     44    H      110.0450  111.8270  129.2450 H       2  LIG2        0.0574
     45    H      107.3870  112.7800  128.1490 H       2  LIG2        0.0448
     46    H      107.7190  111.1720  128.6550 H       2  LIG2        0.0448
     47    H      108.7980  111.1360  131.0660 H       2  LIG2        0.0449
     48    H      107.1410  110.6880  130.8610 H       2  LIG2        0.0449
     49    H      107.5590  111.0580  133.2140 H       2  LIG2        0.0572
     50    H      108.2410  112.6590  132.8950 H       2  LIG2        0.0572
     51    H      106.3670  114.5140  132.0700 H       2  LIG2        0.0572
     52    H      104.8450  113.7960  131.6710 H       2  LIG2        0.0572
     53    H      105.6440  112.7780  129.7450 H       2  LIG2        0.0449
     54    H      106.5280  114.2210  129.7550 H       2  LIG2        0.0449
     55    H      107.8380  108.7270  124.1110 H       2  LIG2        0.0625
     56    H      106.9020  106.5580  124.2570 H       2  LIG2        0.0618
     57    H      108.4220  104.5190  124.7890 H       2  LIG2        0.0624
     58    H      112.6380  108.2010  124.9430 H       2  LIG2        0.0624
@<TRIPOS>BOND
     1    39    15    1
     2    40    16    1
     3     3     9    2
     4    15    16   ar
     5    15    14   ar
     6    16    17   ar
     7    55    27    1
     8    56    28    1
     9    27    28   ar
    10    27    26   ar
    11     9    26    1
    12     9    10    1
    13    28    29   ar
    14    26    31   ar
    15    29    57    1
    16    29    30   ar
    17    31    30   ar
    18    31    32   ar
    19    30     7   ar
    20    58    32    1
    21    14    10   ar
    22    14    13   ar
    23    32     1   ar
    24    41    17    1
    25    17    18   ar
    26     7    35    1
    27     7     4   ar
    28     1     4   ar
    29     1    33    1
    30    10    11   ar
    31     4    34    1
    32    13    18   ar
    33    13     2   ar
    34    18     6    1
    35    11     2   ar
    36    11    12    1
    37    36    12    1
    38     2    20    1
    39     6    19    1
    40    12    38    1
    41    12    37    1
    42    45    21    1
    43    20    19    1
    44    20    21    1
    45    20    44    1
    46    46    21    1
    47    19    43    1
    48    19    42    1
    49    21     5    1
    50    53    25    1
    51    54    25    1
    52     5    25    1
    53     5    22    1
    54    25    24    1
    55    48    22    1
    56    47    22    1
    57    22    23    1
    58    52    24    1
    59    24    51    1
    60    24     8    1
    61    23     8    1
    62    23    50    1
    63    23    49    1
@<TRIPOS>MOLECULE
6pt0_ligand_run_15.pdb
 58 63 0 0 0
SMALL
GASTEIGER

@<TRIPOS>ATOM
      1    C      107.2420  107.0950  124.2210 C.ar    2  LIG2       -0.0611
      2    N      109.9250  111.7430  127.2760 N.ar    2  LIG2       -0.3330
      3    O      111.2040  109.5000  123.4480 O.2     2  LIG2       -0.2866
      4    C      107.1640  105.5690  124.7000 C.ar    2  LIG2       -0.0612
      5    N      107.5790  112.4440  130.1830 N.3     2  LIG2       -0.2959
      6    O      109.7110  114.5210  127.5100 O.3     2  LIG2       -0.4878
      7    C      108.2560  104.9730  125.2350 C.ar    2  LIG2       -0.0540
      8    O      106.0360  112.5480  132.5970 O.3     2  LIG2       -0.3772
      9    C      110.8540  109.2570  124.5540 C.2     2  LIG2        0.1960
     10    C      110.5140  110.4350  125.4900 C.ar    2  LIG2        0.0505
     11    C      110.1090  110.4170  126.8660 C.ar    2  LIG2        0.0281
     12    C      109.9260  109.1800  127.7550 C.3     2  LIG2       -0.0235
     13    C      110.1670  112.6300  126.2710 C.ar    2  LIG2        0.0926
     14    C      110.5660  111.8390  125.0560 C.ar    2  LIG2        0.0146
     15    C      110.8930  112.4760  123.8710 C.ar    2  LIG2       -0.0517
     16    C      110.8130  113.8950  123.8700 C.ar    2  LIG2       -0.0576
     17    C      110.4370  114.6420  125.0210 C.ar    2  LIG2       -0.0178
     18    C      110.0980  113.8970  126.3140 C.ar    2  LIG2        0.1446
     19    C      109.8220  113.7720  128.7050 C.3     2  LIG2        0.1115
     20    C      109.4990  112.2770  128.5640 C.3     2  LIG2        0.0815
     21    C      108.0230  111.9990  128.8770 C.3     2  LIG2        0.0231
     22    C      107.7570  111.5070  131.2030 C.3     2  LIG2        0.0225
     23    C      107.3970  112.0220  132.5850 C.3     2  LIG2        0.0604
     24    C      105.7710  113.5140  131.5340 C.3     2  LIG2        0.0604
     25    C      106.3490  113.1180  130.1800 C.3     2  LIG2        0.0225
     26    C      110.7710  107.7850  124.9730 C.ar    2  LIG2        0.0300
     27    C      111.9920  107.0960  125.5480 C.ar    2  LIG2       -0.0503
     28    C      111.9190  105.8690  125.9490 C.ar    2  LIG2       -0.0605
     29    C      110.6090  105.1140  125.8380 C.ar    2  LIG2       -0.0540
     30    C      109.5350  105.7260  125.3560 C.ar    2  LIG2       -0.0172
     31    C      109.6180  107.1220  124.8920 C.ar    2  LIG2       -0.0071
     32    C      108.4110  107.7730  124.3050 C.ar    2  LIG2       -0.0533
     33    H      106.3620  107.5840  123.8310 H       2  LIG2        0.0618
     34    H      106.2420  105.0170  124.5960 H       2  LIG2        0.0618
     35    H      108.2000  103.9500  125.5750 H       2  LIG2        0.0624
     36    H      110.1360  108.2810  127.1750 H       2  LIG2        0.0292
     37    H      110.6130  109.2350  128.6000 H       2  LIG2        0.0292
     38    H      108.9000  109.1440  128.1230 H       2  LIG2        0.0292
     39    H      111.1890  111.8950  123.0090 H       2  LIG2        0.0624
     40    H      111.0410  114.4480  122.9720 H       2  LIG2        0.0619
     41    H      110.3950  115.7200  124.9750 H       2  LIG2        0.0655
     42    H      109.1770  114.2100  129.4660 H       2  LIG2        0.0718
     43    H      110.8270  113.8880  129.1110 H       2  LIG2        0.0718
     44    H      110.0830  111.7590  129.3260 H       2  LIG2        0.0574
     45    H      107.4000  112.4580  128.1090 H       2  LIG2        0.0448
     46    H      107.8270  110.9320  128.7740 H       2  LIG2        0.0448
     47    H      108.7920  111.1650  131.2040 H       2  LIG2        0.0449
     48    H      107.1670  110.6170  130.9830 H       2  LIG2        0.0449
     49    H      107.4780  111.2090  133.3080 H       2  LIG2        0.0572
     50    H      108.0930  112.8100  132.8720 H       2  LIG2        0.0572
     51    H      106.1650  114.4880  131.8240 H       2  LIG2        0.0572
     52    H      104.6950  113.6610  131.4390 H       2  LIG2        0.0572
     53    H      105.6150  112.5220  129.6380 H       2  LIG2        0.0449
     54    H      106.4280  114.0050  129.5510 H       2  LIG2        0.0449
     55    H      112.9270  107.6300  125.6260 H       2  LIG2        0.0625
     56    H      112.7910  105.3840  126.3610 H       2  LIG2        0.0618
     57    H      110.5530  104.0820  126.1510 H       2  LIG2        0.0624
     58    H      108.4730  108.7890  123.9450 H       2  LIG2        0.0624
@<TRIPOS>BOND
     1    40    16    1
     2    39    15    1
     3     3     9    2
     4    33     1    1
     5    16    15   ar
     6    16    17   ar
     7    15    14   ar
     8    58    32    1
     9     1    32   ar
    10     1     4   ar
    11    32    31   ar
    12     9    26    1
    13     9    10    1
    14    34     4    1
    15     4     7   ar
    16    31    26   ar
    17    31    30   ar
    18    26    27   ar
    19    41    17    1
    20    17    18   ar
    21    14    10   ar
    22    14    13   ar
    23     7    30   ar
    24     7    35    1
    25    30    29   ar
    26    10    11   ar
    27    27    55    1
    28    27    28   ar
    29    29    28   ar
    30    29    57    1
    31    28    56    1
    32    13    18   ar
    33    13     2   ar
    34    18     6    1
    35    11     2   ar
    36    11    12    1
    37    36    12    1
    38     2    20    1
    39     6    19    1
    40    12    38    1
    41    12    37    1
    42    45    21    1
    43    20    19    1
    44    20    21    1
    45    20    44    1
    46    19    43    1
    47    19    42    1
    48    46    21    1
    49    21     5    1
    50    54    25    1
    51    53    25    1
    52    25     5    1
    53    25    24    1
    54     5    22    1
    55    48    22    1
    56    22    47    1
    57    22    23    1
    58    52    24    1
    59    24    51    1
    60    24     8    1
    61    23     8    1
    62    23    50    1
    63    23    49    1
@<TRIPOS>MOLECULE
6pt0_ligand_run_23.pdb
 58 63 0 0 0
SMALL
GASTEIGER

@<TRIPOS>ATOM
      1    C      109.4790  111.0880  128.6540 C.ar    2  LIG2       -0.0611
      2    N      110.3310  107.8390  123.9770 N.ar    2  LIG2       -0.3330
      3    O      112.9870  111.3860  125.2030 O.2     2  LIG2       -0.2866
      4    C      108.4140  112.2510  128.9280 C.ar    2  LIG2       -0.0612
      5    N      107.1290  105.8230  123.6100 N.3     2  LIG2       -0.2959
      6    O      111.0270  105.1320  124.0820 O.3     2  LIG2       -0.4878
      7    C      108.2480  113.2430  128.0220 C.ar    2  LIG2       -0.0540
      8    O      104.5730  104.7390  122.8980 O.3     2  LIG2       -0.3772
      9    C      111.8310  111.1300  125.1460 C.2     2  LIG2        0.1960
     10    C      111.4160  109.6920  124.7730 C.ar    2  LIG2        0.0505
     11    C      110.2470  109.2320  124.0810 C.ar    2  LIG2        0.0281
     12    C      109.1080  110.0960  123.5260 C.3     2  LIG2       -0.0235
     13    C      111.4610  107.3470  124.5590 C.ar    2  LIG2        0.0926
     14    C      112.2340  108.5150  125.1050 C.ar    2  LIG2        0.0146
     15    C      113.4480  108.3260  125.7430 C.ar    2  LIG2       -0.0517
     16    C      113.9000  106.9840  125.8610 C.ar    2  LIG2       -0.0576
     17    C      113.1690  105.8800  125.3410 C.ar    2  LIG2       -0.0178
     18    C      111.8380  106.1360  124.6310 C.ar    2  LIG2        0.1446
     19    C      110.0610  105.5210  123.1250 C.3     2  LIG2        0.1115
     20    C      109.4010  106.8840  123.3860 C.3     2  LIG2        0.0815
     21    C      108.1050  106.7230  124.1920 C.3     2  LIG2        0.0231
     22    C      106.3540  106.3890  122.5960 C.3     2  LIG2        0.0225
     23    C      105.4160  105.4090  121.9140 C.3     2  LIG2        0.0604
     24    C      105.3200  104.1470  124.0060 C.3     2  LIG2        0.0604
     25    C      106.4370  105.0350  124.5410 C.3     2  LIG2        0.0225
     26    C      110.8330  112.2540  125.4430 C.ar    2  LIG2        0.0300
     27    C      110.6550  113.3860  124.4510 C.ar    2  LIG2       -0.0503
     28    C      109.7820  114.3130  124.6700 C.ar    2  LIG2       -0.0605
     29    C      108.9340  114.2730  125.9260 C.ar    2  LIG2       -0.0540
     30    C      109.0740  113.2680  126.7820 C.ar    2  LIG2       -0.0172
     31    C      110.0740  112.2140  126.5380 C.ar    2  LIG2       -0.0071
     32    C      110.2500  111.1240  127.5410 C.ar    2  LIG2       -0.0533
     33    H      109.5840  110.2750  129.3560 H       2  LIG2        0.0618
     34    H      107.8280  112.2430  129.8360 H       2  LIG2        0.0618
     35    H      107.5170  114.0180  128.1970 H       2  LIG2        0.0624
     36    H      109.3030  111.1450  123.7510 H       2  LIG2        0.0292
     37    H      109.0430  109.9630  122.4460 H       2  LIG2        0.0292
     38    H      108.1660  109.7950  123.9860 H       2  LIG2        0.0292
     39    H      113.9970  109.1760  126.1200 H       2  LIG2        0.0624
     40    H      114.8330  106.7710  126.3610 H       2  LIG2        0.0619
     41    H      113.5550  104.8770  125.4510 H       2  LIG2        0.0655
     42    H      109.2900  104.7540  123.0580 H       2  LIG2        0.0718
     43    H      110.5160  105.5250  122.1340 H       2  LIG2        0.0718
     44    H      109.1170  107.2850  122.4130 H       2  LIG2        0.0574
     45    H      108.3470  106.3880  125.2010 H       2  LIG2        0.0448
     46    H      107.6490  107.7010  124.3400 H       2  LIG2        0.0448
     47    H      107.0080  106.8410  121.8500 H       2  LIG2        0.0449
     48    H      105.7760  107.2190  123.0040 H       2  LIG2        0.0449
     49    H      104.7870  105.9440  121.2020 H       2  LIG2        0.0572
     50    H      105.9990  104.6670  121.3700 H       2  LIG2        0.0572
     51    H      105.7370  103.1910  123.6910 H       2  LIG2        0.0572
     52    H      104.6320  103.9030  124.8150 H       2  LIG2        0.0572
     53    H      106.0400  105.6760  125.3280 H       2  LIG2        0.0449
     54    H      107.1500  104.4210  125.0910 H       2  LIG2        0.0449
     55    H      111.2600  113.4200  123.5570 H       2  LIG2        0.0625
     56    H      109.6580  115.1150  123.9580 H       2  LIG2        0.0618
     57    H      108.2200  115.0590  126.1210 H       2  LIG2        0.0624
     58    H      110.9960  110.3600  127.3760 H       2  LIG2        0.0624
@<TRIPOS>BOND
     1    49    23    1
     2    50    23    1
     3    47    22    1
     4    23    22    1
     5    23     8    1
     6    43    19    1
     7    44    20    1
     8    37    12    1
     9    22    48    1
    10    22     5    1
    11     8    24    1
    12    42    19    1
    13    19    20    1
    14    19     6    1
    15    20     2    1
    16    20    21    1
    17    12    36    1
    18    12    38    1
    19    12    11    1
    20    55    27    1
    21     5    21    1
    22     5    25    1
    23    51    24    1
    24    56    28    1
    25     2    11   ar
    26     2    13   ar
    27    24    25    1
    28    24    52    1
    29    11    10   ar
    30     6    18    1
    31    21    46    1
    32    21    45    1
    33    27    28   ar
    34    27    26   ar
    35    25    54    1
    36    25    53    1
    37    13    18   ar
    38    13    14   ar
    39    18    17   ar
    40    28    29   ar
    41    10    14   ar
    42    10     9    1
    43    14    15   ar
    44     9     3    2
    45     9    26    1
    46    17    41    1
    47    17    16   ar
    48    26    31   ar
    49    15    16   ar
    50    15    39    1
    51    16    40    1
    52    29    57    1
    53    29    30   ar
    54    31    30   ar
    55    31    32   ar
    56    30     7   ar
    57    58    32    1
    58    32     1   ar
    59     7    35    1
    60     7     4   ar
    61     1     4   ar
    62     1    33    1
    63     4    34    1
@<TRIPOS>MOLECULE
6pt0_ligand_run_6.pdb
 58 63 0 0 0
SMALL
GASTEIGER

@<TRIPOS>ATOM
      1    C      110.7660  114.3290  123.4950 C.ar    2  LIG2       -0.0611
      2    N      110.1350  107.5410  123.9960 N.ar    2  LIG2       -0.3330
      3    O      112.8100  111.0090  125.3600 O.2     2  LIG2       -0.2866
      4    C      109.7800  115.3920  124.1730 C.ar    2  LIG2       -0.0612
      5    N      106.9020  105.6000  123.5280 N.3     2  LIG2       -0.2959
      6    O      110.8490  104.8470  123.7700 O.3     2  LIG2       -0.4878
      7    C      109.2480  115.1370  125.3920 C.ar    2  LIG2       -0.0540
      8    O      104.2890  104.7390  122.7240 O.3     2  LIG2       -0.3772
      9    C      111.6690  110.6990  125.4530 C.2     2  LIG2        0.1960
     10    C      111.2460  109.3060  124.9420 C.ar    2  LIG2        0.0505
     11    C      110.0480  108.9130  124.2570 C.ar    2  LIG2        0.0281
     12    C      108.8800  109.8210  123.8530 C.3     2  LIG2       -0.0235
     13    C      111.2930  107.0000  124.4680 C.ar    2  LIG2        0.0926
     14    C      112.0840  108.1090  125.1040 C.ar    2  LIG2        0.0146
     15    C      113.3270  107.8630  125.6620 C.ar    2  LIG2       -0.0517
     16    C      113.7920  106.5210  125.6110 C.ar    2  LIG2       -0.0576
     17    C      113.0430  105.4730  125.0050 C.ar    2  LIG2       -0.0178
     18    C      111.6800  105.7930  124.3890 C.ar    2  LIG2        0.1446
     19    C      109.8380  105.3290  122.9060 C.3     2  LIG2        0.1115
     20    C      109.1840  106.6470  123.3460 C.3     2  LIG2        0.0815
     21    C      107.9270  106.3850  124.1870 C.3     2  LIG2        0.0231
     22    C      106.1680  106.2980  122.5670 C.3     2  LIG2        0.0225
     23    C      105.1760  105.4400  121.8020 C.3     2  LIG2        0.0604
     24    C      104.9920  104.0100  123.7760 C.3     2  LIG2        0.0604
     25    C      106.1580  104.7780  124.3870 C.3     2  LIG2        0.0225
     26    C      110.6980  111.7110  126.0710 C.ar    2  LIG2        0.0300
     27    C      110.0740  111.4280  127.4220 C.ar    2  LIG2       -0.0503
     28    C      109.2920  112.2970  127.9730 C.ar    2  LIG2       -0.0605
     29    C      108.9930  113.6030  127.2640 C.ar    2  LIG2       -0.0540
     30    C      109.5590  113.8590  126.0910 C.ar    2  LIG2       -0.0172
     31    C      110.4450  112.8670  125.4580 C.ar    2  LIG2       -0.0071
     32    C      111.0280  113.1550  124.1160 C.ar    2  LIG2       -0.0533
     33    H      111.2220  114.5490  122.5410 H       2  LIG2        0.0618
     34    H      109.5400  116.3110  123.6590 H       2  LIG2        0.0618
     35    H      108.5970  115.8610  125.8600 H       2  LIG2        0.0624
     36    H      109.0800  110.8410  124.1840 H       2  LIG2        0.0292
     37    H      108.7660  109.8080  122.7700 H       2  LIG2        0.0292
     38    H      107.9620  109.4620  124.3190 H       2  LIG2        0.0292
     39    H      113.8890  108.6720  126.1060 H       2  LIG2        0.0624
     40    H      114.7480  106.2640  126.0410 H       2  LIG2        0.0619
     41    H      113.4390  104.4690  124.9860 H       2  LIG2        0.0655
     42    H      109.0690  104.5660  122.7890 H       2  LIG2        0.0718
     43    H      110.2480  105.4470  121.9020 H       2  LIG2        0.0718
     44    H      108.8530  107.1500  122.4370 H       2  LIG2        0.0574
     45    H      108.2120  105.8960  125.1190 H       2  LIG2        0.0448
     46    H      107.5030  107.3360  124.5060 H       2  LIG2        0.0448
     47    H      106.8520  106.7730  121.8640 H       2  LIG2        0.0449
     48    H      105.6400  107.1230  123.0450 H       2  LIG2        0.0449
     49    H      104.5850  106.0720  121.1390 H       2  LIG2        0.0572
     50    H      105.7170  104.7140  121.1950 H       2  LIG2        0.0572
     51    H      105.3520  103.0610  123.3790 H       2  LIG2        0.0572
     52    H      104.2860  103.7390  124.5610 H       2  LIG2        0.0572
     53    H      105.7960  105.3710  125.2260 H       2  LIG2        0.0449
     54    H      106.8300  104.0760  124.8820 H       2  LIG2        0.0449
     55    H      110.2820  110.4970  127.9290 H       2  LIG2        0.0625
     56    H      108.8520  112.0910  128.9380 H       2  LIG2        0.0618
     57    H      108.3220  114.3200  127.7130 H       2  LIG2        0.0624
     58    H      111.6620  112.4220  123.6390 H       2  LIG2        0.0624
@<TRIPOS>BOND
     1    49    23    1
     2    50    23    1
     3    23    22    1
     4    23     8    1
     5    47    22    1
     6    43    19    1
     7    44    20    1
     8    33     1    1
     9    22    48    1
    10    22     5    1
    11     8    24    1
    12    37    12    1
    13    42    19    1
    14    19    20    1
    15    19     6    1
    16    20     2    1
    17    20    21    1
    18    51    24    1
    19     1    32   ar
    20     1     4   ar
    21     5    21    1
    22     5    25    1
    23    58    32    1
    24    34     4    1
    25     6    18    1
    26    24    25    1
    27    24    52    1
    28    12    36    1
    29    12    11    1
    30    12    38    1
    31     2    11   ar
    32     2    13   ar
    33    32    31   ar
    34     4     7   ar
    35    21    46    1
    36    21    45    1
    37    11    10   ar
    38    25    54    1
    39    25    53    1
    40    18    13   ar
    41    18    17   ar
    42    13    14   ar
    43    10    14   ar
    44    10     9    1
    45    41    17    1
    46    17    16   ar
    47    14    15   ar
    48     3     9    2
    49     7    35    1
    50     7    30   ar
    51     9    26    1
    52    31    26   ar
    53    31    30   ar
    54    16    15   ar
    55    16    40    1
    56    15    39    1
    57    26    27   ar
    58    30    29   ar
    59    29    57    1
    60    29    28   ar
    61    27    55    1
    62    27    28   ar
    63    28    56    1
@<TRIPOS>MOLECULE
6pt0_ligand_run_18.pdb
 58 63 0 0 0
SMALL
GASTEIGER

@<TRIPOS>ATOM
      1    C      106.3550  106.4390  122.9610 C.ar    2  LIG2       -0.0611
      2    N      109.4360  111.1840  127.5250 N.ar    2  LIG2       -0.3330
      3    O      109.0840  107.0680  126.1910 O.2     2  LIG2       -0.2866
      4    C      106.6770  106.0960  121.4310 C.ar    2  LIG2       -0.0612
      5    N      107.8740  112.5990  130.6300 N.3     2  LIG2       -0.2959
      6    O      109.7900  113.9120  127.0190 O.3     2  LIG2       -0.4878
      7    C      107.9290  106.2790  120.9470 C.ar    2  LIG2       -0.0540
      8    O      106.7610  113.0150  133.2380 O.3     2  LIG2       -0.3772
      9    C      109.3700  107.9770  125.4870 C.2     2  LIG2        0.1960
     10    C      109.4330  109.3900  126.1020 C.ar    2  LIG2        0.0505
     11    C      109.2920  109.7930  127.4710 C.ar    2  LIG2        0.0281
     12    C      109.0480  108.8800  128.6790 C.3     2  LIG2       -0.0235
     13    C      109.6500  111.7270  126.2940 C.ar    2  LIG2        0.0926
     14    C      109.6650  110.6000  125.2990 C.ar    2  LIG2        0.0146
     15    C      109.8820  110.8430  123.9530 C.ar    2  LIG2       -0.0517
     16    C      110.0680  112.2010  123.5770 C.ar    2  LIG2       -0.0576
     17    C      110.0560  113.2670  124.5200 C.ar    2  LIG2       -0.0178
     18    C      109.8280  112.9500  125.9990 C.ar    2  LIG2        0.1446
     19    C      109.9770  113.4650  128.3480 C.3     2  LIG2        0.1115
     20    C      109.3620  112.0930  128.6630 C.3     2  LIG2        0.0815
     21    C      107.9420  112.2420  129.2260 C.3     2  LIG2        0.0231
     22    C      107.6030  111.5300  131.4860 C.3     2  LIG2        0.0225
     23    C      107.6480  111.8910  132.9600 C.3     2  LIG2        0.0604
     24    C      106.9710  114.1610  132.3570 C.3     2  LIG2        0.0604
     25    C      107.1750  113.7860  130.8940 C.3     2  LIG2        0.0225
     26    C      109.6510  107.6780  124.0100 C.ar    2  LIG2        0.0300
     27    C      111.0400  107.9030  123.4460 C.ar    2  LIG2       -0.0503
     28    C      111.2990  107.6080  122.2150 C.ar    2  LIG2       -0.0605
     29    C      110.2090  107.0400  121.3270 C.ar    2  LIG2       -0.0540
     30    C      109.0000  106.8220  121.8290 C.ar    2  LIG2       -0.0172
     31    C      108.7000  107.1630  123.2300 C.ar    2  LIG2       -0.0071
     32    C      107.3200  106.9590  123.7570 C.ar    2  LIG2       -0.0533
     33    H      105.3680  106.2570  123.3590 H       2  LIG2        0.0618
     34    H      105.8970  105.7190  120.7860 H       2  LIG2        0.0618
     35    H      108.1520  106.0310  119.9200 H       2  LIG2        0.0624
     36    H      108.9760  107.8440  128.3440 H       2  LIG2        0.0292
     37    H      109.8760  108.9760  129.3810 H       2  LIG2        0.0292
     38    H      108.1190  109.1670  129.1720 H       2  LIG2        0.0292
     39    H      109.9010  110.0220  123.2520 H       2  LIG2        0.0624
     40    H      110.2270  112.4570  122.5400 H       2  LIG2        0.0619
     41    H      110.2080  114.2830  124.1870 H       2  LIG2        0.0655
     42    H      109.5750  114.2070  129.0380 H       2  LIG2        0.0718
     43    H      111.0430  113.4430  128.5740 H       2  LIG2        0.0718
     44    H      109.9680  111.6530  129.4550 H       2  LIG2        0.0574
     45    H      107.3970  112.9810  128.6390 H       2  LIG2        0.0448
     46    H      107.3910  111.3160  129.0640 H       2  LIG2        0.0448
     47    H      108.3090  110.7220  131.2900 H       2  LIG2        0.0449
     48    H      106.6260  111.1130  131.2450 H       2  LIG2        0.0449
     49    H      107.3410  111.0300  133.5540 H       2  LIG2        0.0572
     50    H      108.6680  112.1560  133.2380 H       2  LIG2        0.0572
     51    H      107.8290  114.7340  132.7060 H       2  LIG2        0.0572
     52    H      106.1230  114.8410  132.4410 H       2  LIG2        0.0572
     53    H      106.2060  113.7500  130.3950 H       2  LIG2        0.0449
     54    H      107.6630  114.6120  130.3770 H       2  LIG2        0.0449
     55    H      111.8180  108.3100  124.0750 H       2  LIG2        0.0625
     56    H      112.2910  107.7670  121.8200 H       2  LIG2        0.0618
     57    H      110.4180  106.8150  120.2930 H       2  LIG2        0.0624
     58    H      107.0910  107.2270  124.7780 H       2  LIG2        0.0624
@<TRIPOS>BOND
     1    35     7    1
     2    57    29    1
     3    34     4    1
     4     7     4   ar
     5     7    30   ar
     6    29    30   ar
     7    29    28   ar
     8     4     1   ar
     9    56    28    1
    10    30    31   ar
    11    28    27   ar
    12    40    16    1
    13     1    33    1
    14     1    32   ar
    15    31    32   ar
    16    31    26   ar
    17    39    15    1
    18    27    26   ar
    19    27    55    1
    20    16    15   ar
    21    16    17   ar
    22    32    58    1
    23    15    14   ar
    24    26     9    1
    25    41    17    1
    26    17    18   ar
    27    14    10   ar
    28    14    13   ar
    29     9    10    1
    30     9     3    2
    31    18    13   ar
    32    18     6    1
    33    10    11   ar
    34    13     2   ar
    35     6    19    1
    36    11     2   ar
    37    11    12    1
    38     2    20    1
    39    36    12    1
    40    19    43    1
    41    19    20    1
    42    19    42    1
    43    45    21    1
    44    20    21    1
    45    20    44    1
    46    12    38    1
    47    12    37    1
    48    46    21    1
    49    21     5    1
    50    54    25    1
    51    53    25    1
    52     5    25    1
    53     5    22    1
    54    25    24    1
    55    48    22    1
    56    47    22    1
    57    22    23    1
    58    24    52    1
    59    24    51    1
    60    24     8    1
    61    23    50    1
    62    23     8    1
    63    23    49    1
@<TRIPOS>MOLECULE
6pt0_ligand_run_19.pdb
 58 63 0 0 0
SMALL
GASTEIGER

@<TRIPOS>ATOM
      1    C      108.4930  113.7840  126.8180 C.ar    2  LIG2       -0.0611
      2    N      109.9750  107.1910  124.5070 N.ar    2  LIG2       -0.3330
      3    O      111.0480  110.5220  127.4950 O.2     2  LIG2       -0.2866
      4    C      108.6660  115.0550  125.8610 C.ar    2  LIG2       -0.0612
      5    N      107.2450  105.3360  122.6220 N.3     2  LIG2       -0.2959
      6    O      110.2880  104.4420  124.9120 O.3     2  LIG2       -0.4878
      7    C      109.5910  115.0350  124.8720 C.ar    2  LIG2       -0.0540
      8    O      105.4930  104.3580  120.5740 O.3     2  LIG2       -0.3772
      9    C      110.9510  110.3850  126.3210 C.2     2  LIG2        0.1960
     10    C      110.6620  108.9740  125.7690 C.ar    2  LIG2        0.0505
     11    C      109.9690  108.5890  124.5740 C.ar    2  LIG2        0.0281
     12    C      109.3460  109.5240  123.5300 C.3     2  LIG2       -0.0235
     13    C      110.6080  106.6280  125.5740 C.ar    2  LIG2        0.0926
     14    C      111.0950  107.7470  126.4530 C.ar    2  LIG2        0.0146
     15    C      111.7980  107.4810  127.6160 C.ar    2  LIG2       -0.0517
     16    C      112.0120  106.1110  127.9280 C.ar    2  LIG2       -0.0576
     17    C      111.5530  105.0530  127.0940 C.ar    2  LIG2       -0.0178
     18    C      110.7920  105.3940  125.8110 C.ar    2  LIG2        0.1446
     19    C      109.9770  104.8770  123.6030 C.3     2  LIG2        0.1115
     20    C      109.3940  106.2960  123.5130 C.3     2  LIG2        0.0815
     21    C      107.8610  106.2650  123.5480 C.3     2  LIG2        0.0231
     22    C      107.4580  105.6370  121.2750 C.3     2  LIG2        0.0225
     23    C      106.9080  104.5980  120.3140 C.3     2  LIG2        0.0604
     24    C      105.1940  104.0660  121.9740 C.3     2  LIG2        0.0604
     25    C      105.9390  104.9530  122.9630 C.3     2  LIG2        0.0225
     26    C      111.1280  111.6260  125.4390 C.ar    2  LIG2        0.0300
     27    C      112.1770  111.6290  124.3450 C.ar    2  LIG2       -0.0503
     28    C      112.3010  112.6520  123.5650 C.ar    2  LIG2       -0.0605
     29    C      111.3980  113.8560  123.7460 C.ar    2  LIG2       -0.0540
     30    C      110.4650  113.8420  124.6890 C.ar    2  LIG2       -0.0172
     31    C      110.3250  112.6800  125.5840 C.ar    2  LIG2       -0.0071
     32    C      109.3040  112.7090  126.6710 C.ar    2  LIG2       -0.0533
     33    H      107.7300  113.7820  127.5810 H       2  LIG2        0.0618
     34    H      108.0460  115.9270  126.0040 H       2  LIG2        0.0618
     35    H      109.6970  115.8850  124.2140 H       2  LIG2        0.0624
     36    H      109.4890  110.5600  123.8380 H       2  LIG2        0.0292
     37    H      109.8250  109.3630  122.5650 H       2  LIG2        0.0292
     38    H      108.2790  109.3150  123.4440 H       2  LIG2        0.0292
     39    H      112.1510  108.2950  128.2320 H       2  LIG2        0.0624
     40    H      112.5410  105.8390  128.8290 H       2  LIG2        0.0619
     41    H      111.7440  104.0270  127.3700 H       2  LIG2        0.0655
     42    H      109.2830  104.1730  123.1440 H       2  LIG2        0.0718
     43    H      110.8690  104.8140  122.9810 H       2  LIG2        0.0718
     44    H      109.6770  106.6880  122.5360 H       2  LIG2        0.0574
     45    H      107.5280  106.0380  124.5610 H       2  LIG2        0.0448
     46    H      107.4760  107.2680  123.3620 H       2  LIG2        0.0448
     47    H      108.5250  105.7640  121.0970 H       2  LIG2        0.0449
     48    H      107.0170  106.6080  121.0480 H       2  LIG2        0.0449
     49    H      107.0350  104.9480  119.2890 H       2  LIG2        0.0572
     50    H      107.4620  103.6660  120.4320 H       2  LIG2        0.0572
     51    H      105.4240  103.0210  122.1820 H       2  LIG2        0.0572
     52    H      104.1210  104.1580  122.1410 H       2  LIG2        0.0572
     53    H      105.3450  105.8450  123.1630 H       2  LIG2        0.0449
     54    H      105.9520  104.4700  123.9400 H       2  LIG2        0.0449
     55    H      112.8240  110.7740  124.2150 H       2  LIG2        0.0625
     56    H      113.0480  112.6470  122.7850 H       2  LIG2        0.0618
     57    H      111.5160  114.7200  123.1090 H       2  LIG2        0.0624
     58    H      109.2130  111.8680  127.3420 H       2  LIG2        0.0624
@<TRIPOS>BOND
     1    49    23    1
     2    23    50    1
     3    23     8    1
     4    23    22    1
     5     8    24    1
     6    48    22    1
     7    47    22    1
     8    22     5    1
     9    24    52    1
    10    24    51    1
    11    24    25    1
    12    44    20    1
    13    37    12    1
    14     5    25    1
    15     5    21    1
    16    56    28    1
    17    25    53    1
    18    25    54    1
    19    43    19    1
    20    57    29    1
    21    42    19    1
    22    46    21    1
    23    38    12    1
    24    20    21    1
    25    20    19    1
    26    20     2    1
    27    12    36    1
    28    12    11    1
    29    21    45    1
    30    28    29   ar
    31    28    27   ar
    32    19     6    1
    33    29    30   ar
    34    35     7    1
    35    55    27    1
    36    27    26   ar
    37     2    11   ar
    38     2    13   ar
    39    11    10   ar
    40    30     7   ar
    41    30    31   ar
    42     7     4   ar
    43     6    18    1
    44    26    31   ar
    45    26     9    1
    46    13    18   ar
    47    13    14   ar
    48    31    32   ar
    49    10     9    1
    50    10    14   ar
    51    18    17   ar
    52     4    34    1
    53     4     1   ar
    54     9     3    2
    55    14    15   ar
    56    32     1   ar
    57    32    58    1
    58     1    33    1
    59    17    41    1
    60    17    16   ar
    61    15    16   ar
    62    15    39    1
    63    16    40    1
@<TRIPOS>MOLECULE
6pt0_ligand_run_12.pdb
 58 63 0 0 0
SMALL
GASTEIGER

@<TRIPOS>ATOM
      1    C      111.4360  113.1210  127.8840 C.ar    2  LIG2       -0.0611
      2    N      109.0840  106.8020  124.6570 N.ar    2  LIG2       -0.3330
      3    O      112.3260  109.8130  125.3620 O.2     2  LIG2       -0.2866
      4    C      110.8720  114.5720  127.5090 C.ar    2  LIG2       -0.0612
      5    N      106.9180  104.9970  122.1330 N.3     2  LIG2       -0.2959
      6    O      107.4430  105.1980  126.2540 O.3     2  LIG2       -0.4878
      7    C      110.2880  114.7780  126.3050 C.ar    2  LIG2       -0.0540
      8    O      105.7650  103.7500  119.8240 O.3     2  LIG2       -0.3772
      9    C      111.1740  109.9440  125.1140 C.2     2  LIG2        0.1960
     10    C      110.2680  108.6970  125.1610 C.ar    2  LIG2        0.0505
     11    C      109.9370  107.7720  124.1160 C.ar    2  LIG2        0.0281
     12    C      110.4340  107.8070  122.6650 C.3     2  LIG2       -0.0235
     13    C      108.8210  107.0260  125.9750 C.ar    2  LIG2        0.0926
     14    C      109.5740  108.2620  126.3820 C.ar    2  LIG2        0.0146
     15    C      109.5140  108.7330  127.6830 C.ar    2  LIG2       -0.0517
     16    C      108.7000  107.9970  128.5870 C.ar    2  LIG2       -0.0576
     17    C      107.9900  106.8260  128.2000 C.ar    2  LIG2       -0.0178
     18    C      108.0960  106.3340  126.7550 C.ar    2  LIG2        0.1446
     19    C      107.9330  104.6370  125.0520 C.3     2  LIG2        0.1115
     20    C      108.4450  105.6560  124.0230 C.3     2  LIG2        0.0815
     21    C      107.3360  106.0490  123.0380 C.3     2  LIG2        0.0231
     22    C      107.5690  105.0060  120.8970 C.3     2  LIG2        0.0225
     23    C      107.2100  103.8350  120.0000 C.3     2  LIG2        0.0604
     24    C      105.0170  103.7660  121.0790 C.3     2  LIG2        0.0604
     25    C      105.5320  104.7810  122.0920 C.3     2  LIG2        0.0225
     26    C      110.6730  111.3480  124.7580 C.ar    2  LIG2        0.0300
     27    C      110.0410  111.6020  123.4040 C.ar    2  LIG2       -0.0503
     28    C      109.5720  112.7700  123.1120 C.ar    2  LIG2       -0.0605
     29    C      109.6590  113.8950  124.1260 C.ar    2  LIG2       -0.0540
     30    C      110.1910  113.6650  125.3190 C.ar    2  LIG2       -0.0172
     31    C      110.7330  112.3350  125.6510 C.ar    2  LIG2       -0.0071
     32    C      111.3750  112.1150  126.9800 C.ar    2  LIG2       -0.0533
     33    H      111.8670  112.9450  128.8580 H       2  LIG2        0.0618
     34    H      110.9580  115.3840  128.2150 H       2  LIG2        0.0618
     35    H      109.8900  115.7510  126.0570 H       2  LIG2        0.0624
     36    H      111.0830  108.6720  122.5240 H       2  LIG2        0.0292
     37    H      110.9910  106.8960  122.4500 H       2  LIG2        0.0292
     38    H      109.5810  107.8790  121.9900 H       2  LIG2        0.0292
     39    H      110.0690  109.6160  127.9650 H       2  LIG2        0.0624
     40    H      108.6010  108.3220  129.6120 H       2  LIG2        0.0619
     41    H      107.3870  106.2960  128.9230 H       2  LIG2        0.0655
     42    H      107.1560  104.0230  124.5970 H       2  LIG2        0.0718
     43    H      108.7280  103.9280  125.2840 H       2  LIG2        0.0718
     44    H      109.2150  105.1500  123.4400 H       2  LIG2        0.0574
     45    H      106.4700  106.4100  123.5950 H       2  LIG2        0.0448
     46    H      107.6570  106.9150  122.4600 H       2  LIG2        0.0448
     47    H      108.6470  105.0220  121.0570 H       2  LIG2        0.0449
     48    H      107.3480  105.9400  120.3790 H       2  LIG2        0.0449
     49    H      107.6880  103.9620  119.0290 H       2  LIG2        0.0572
     50    H      107.5760  102.9100  120.4470 H       2  LIG2        0.0572
     51    H      105.0360  102.7710  121.5230 H       2  LIG2        0.0572
     52    H      103.9660  103.9640  120.8710 H       2  LIG2        0.0572
     53    H      105.0260  105.7340  121.9340 H       2  LIG2        0.0449
     54    H      105.1840  104.5040  123.0870 H       2  LIG2        0.0449
     55    H      109.9810  110.8040  122.6780 H       2  LIG2        0.0625
     56    H      109.1200  112.9450  122.1480 H       2  LIG2        0.0618
     57    H      109.2880  114.8770  123.8750 H       2  LIG2        0.0624
     58    H      111.7910  111.1470  127.2190 H       2  LIG2        0.0624
@<TRIPOS>BOND
     1    49    23    1
     2     8    23    1
     3     8    24    1
     4    23    50    1
     5    23    22    1
     6    48    22    1
     7    52    24    1
     8    22    47    1
     9    22     5    1
    10    24    51    1
    11    24    25    1
    12    53    25    1
    13    38    12    1
    14    25     5    1
    15    25    54    1
    16     5    21    1
    17    56    28    1
    18    37    12    1
    19    46    21    1
    20    36    12    1
    21    12    11    1
    22    55    27    1
    23    21    45    1
    24    21    20    1
    25    28    27   ar
    26    28    29   ar
    27    27    26   ar
    28    44    20    1
    29    57    29    1
    30    20     2    1
    31    20    19    1
    32    11     2   ar
    33    11    10   ar
    34    29    30   ar
    35    42    19    1
    36     2    13   ar
    37    26     9    1
    38    26    31   ar
    39    19    43    1
    40    19     6    1
    41     9    10    1
    42     9     3    2
    43    10    14   ar
    44    30    31   ar
    45    30     7   ar
    46    31    32   ar
    47    13    14   ar
    48    13    18   ar
    49    35     7    1
    50     6    18    1
    51     7     4   ar
    52    14    15   ar
    53    18    17   ar
    54    32    58    1
    55    32     1   ar
    56     4     1   ar
    57     4    34    1
    58    15    39    1
    59    15    16   ar
    60     1    33    1
    61    17    16   ar
    62    17    41    1
    63    16    40    1
@<TRIPOS>MOLECULE
6pt0_ligand_run_1.pdb
 58 63 0 0 0
SMALL
GASTEIGER

@<TRIPOS>ATOM
      1    C      110.2970  107.3090  121.5650 C.ar    2  LIG2       -0.0611
      2    N      109.4800  111.7610  127.4300 N.ar    2  LIG2       -0.3330
      3    O      111.6890  108.3660  125.4850 O.2     2  LIG2       -0.2866
      4    C      109.2180  106.2070  121.1350 C.ar    2  LIG2       -0.0612
      5    N      107.4010  112.5300  130.4040 N.3     2  LIG2       -0.2959
      6    O      109.0300  114.4460  126.7920 O.3     2  LIG2       -0.4878
      7    C      108.3620  105.7040  122.0550 C.ar    2  LIG2       -0.0540
      8    O      107.9930  112.9940  133.1700 O.3     2  LIG2       -0.3772
      9    C      110.5330  108.6150  125.5740 C.2     2  LIG2        0.1960
     10    C      110.1220  110.0010  126.1120 C.ar    2  LIG2        0.0505
     11    C      109.7670  110.3910  127.4460 C.ar    2  LIG2        0.0281
     12    C      109.7240  109.4910  128.6870 C.3     2  LIG2       -0.0235
     13    C      109.6090  112.2980  126.1840 C.ar    2  LIG2        0.0926
     14    C      110.0350  111.1940  125.2570 C.ar    2  LIG2        0.0146
     15    C      110.2640  111.4440  123.9140 C.ar    2  LIG2       -0.0517
     16    C      110.0590  112.7790  123.4740 C.ar    2  LIG2       -0.0576
     17    C      109.6580  113.8240  124.3530 C.ar    2  LIG2       -0.0178
     18    C      109.4290  113.5050  125.8320 C.ar    2  LIG2        0.1446
     19    C      109.2460  114.1260  128.1530 C.3     2  LIG2        0.1115
     20    C      109.0530  112.6440  128.5080 C.3     2  LIG2        0.0815
     21    C      107.6180  112.3720  128.9790 C.3     2  LIG2        0.0231
     22    C      107.6580  113.8140  130.8890 C.3     2  LIG2        0.0225
     23    C      107.3180  114.0000  132.3570 C.3     2  LIG2        0.0604
     24    C      107.7910  111.6260  132.7000 C.3     2  LIG2        0.0604
     25    C      107.8870  111.4720  131.1870 C.3     2  LIG2        0.0225
     26    C      109.5320  107.5340  125.1520 C.ar    2  LIG2        0.0300
     27    C      108.5850  106.9420  126.1760 C.ar    2  LIG2       -0.0503
     28    C      107.7060  106.0650  125.8200 C.ar    2  LIG2       -0.0605
     29    C      107.6230  105.6210  124.3730 C.ar    2  LIG2       -0.0540
     30    C      108.4380  106.1570  123.4730 C.ar    2  LIG2       -0.0172
     31    C      109.4460  107.1520  123.8780 C.ar    2  LIG2       -0.0071
     32    C      110.3850  107.7020  122.8580 C.ar    2  LIG2       -0.0533
     33    H      110.9540  107.7400  120.8240 H       2  LIG2        0.0618
     34    H      109.1750  105.8650  120.1110 H       2  LIG2        0.0618
     35    H      107.6220  104.9740  121.7630 H       2  LIG2        0.0624
     36    H      109.9930  108.4720  128.4070 H       2  LIG2        0.0292
     37    H      110.4310  109.8600  129.4290 H       2  LIG2        0.0292
     38    H      108.7180  109.4980  129.1080 H       2  LIG2        0.0292
     39    H      110.5820  110.6430  123.2630 H       2  LIG2        0.0624
     40    H      110.2080  113.0340  122.4350 H       2  LIG2        0.0619
     41    H      109.5190  114.8250  123.9730 H       2  LIG2        0.0655
     42    H      108.5900  114.7340  128.7760 H       2  LIG2        0.0718
     43    H      110.2500  114.4380  128.4420 H       2  LIG2        0.0718
     44    H      109.7050  112.4390  129.3580 H       2  LIG2        0.0574
     45    H      106.9310  113.0220  128.4370 H       2  LIG2        0.0448
     46    H      107.3240  111.3670  128.6790 H       2  LIG2        0.0448
     47    H      107.1050  114.5420  130.2960 H       2  LIG2        0.0449
     48    H      108.7080  114.0580  130.7270 H       2  LIG2        0.0449
     49    H      107.6290  114.9940  132.6790 H       2  LIG2        0.0572
     50    H      106.2400  113.9140  132.4940 H       2  LIG2        0.0572
     51    H      106.8190  111.2680  133.0380 H       2  LIG2        0.0572
     52    H      108.5170  110.9680  133.1770 H       2  LIG2        0.0572
     53    H      108.9230  111.2700  130.9120 H       2  LIG2        0.0449
     54    H      107.3920  110.5480  130.8880 H       2  LIG2        0.0449
     55    H      108.6430  107.2540  127.2090 H       2  LIG2        0.0625
     56    H      107.0310  105.6490  126.5530 H       2  LIG2        0.0618
     57    H      106.9040  104.8710  124.0780 H       2  LIG2        0.0624
     58    H      111.1390  108.4160  123.1550 H       2  LIG2        0.0624
@<TRIPOS>BOND
     1    34     4    1
     2    33     1    1
     3     4     1   ar
     4     4     7   ar
     5     1    32   ar
     6    35     7    1
     7     7    30   ar
     8    40    16    1
     9    32    58    1
    10    32    31   ar
    11    39    15    1
    12    30    31   ar
    13    30    29   ar
    14    16    15   ar
    15    16    17   ar
    16    31    26   ar
    17    15    14   ar
    18    41    17    1
    19    57    29    1
    20    17    18   ar
    21    29    28   ar
    22    26     9    1
    23    26    27   ar
    24    14    10   ar
    25    14    13   ar
    26     3     9    2
    27     9    10    1
    28    28    27   ar
    29    28    56    1
    30    18    13   ar
    31    18     6    1
    32    10    11   ar
    33    27    55    1
    34    13     2   ar
    35     6    19    1
    36     2    11   ar
    37     2    20    1
    38    11    12    1
    39    19    43    1
    40    19    20    1
    41    19    42    1
    42    36    12    1
    43    45    21    1
    44    20    21    1
    45    20    44    1
    46    46    21    1
    47    12    38    1
    48    12    37    1
    49    21     5    1
    50    47    22    1
    51     5    22    1
    52     5    25    1
    53    48    22    1
    54    54    25    1
    55    22    23    1
    56    53    25    1
    57    25    24    1
    58    23    50    1
    59    23    49    1
    60    23     8    1
    61    24    51    1
    62    24     8    1
    63    24    52    1
@<TRIPOS>MOLECULE
6pt0_ligand_run_20.pdb
 58 63 0 0 0
SMALL
GASTEIGER

@<TRIPOS>ATOM
      1    C      111.2380  114.4860  127.9250 C.ar    2  LIG2       -0.0611
      2    N      110.8640  107.1090  126.2890 N.ar    2  LIG2       -0.3330
      3    O      109.3180  111.0190  128.1490 O.2     2  LIG2       -0.2866
      4    C      111.3840  115.5690  126.7560 C.ar    2  LIG2       -0.0612
      5    N      109.8270  105.9190  123.8850 N.3     2  LIG2       -0.2959
      6    O      110.1940  104.5140  127.0880 O.3     2  LIG2       -0.4878
      7    C      110.9950  115.2600  125.4960 C.ar    2  LIG2       -0.0540
      8    O      107.3560  105.5860  122.4700 O.3     2  LIG2       -0.3772
      9    C      109.7060  110.6390  127.0950 C.2     2  LIG2        0.1960
     10    C      110.0060  109.1350  126.9240 C.ar    2  LIG2        0.0505
     11    C      110.9730  108.4890  126.0840 C.ar    2  LIG2        0.0281
     12    C      111.9710  109.1700  125.1400 C.3     2  LIG2       -0.0235
     13    C      109.8910  106.7980  127.1920 C.ar    2  LIG2        0.0926
     14    C      109.2800  108.0890  127.6600 C.ar    2  LIG2        0.0146
     15    C      108.2660  108.0930  128.6030 C.ar    2  LIG2       -0.0517
     16    C      107.8370  106.8240  129.0780 C.ar    2  LIG2       -0.0576
     17    C      108.4180  105.6030  128.6350 C.ar    2  LIG2       -0.0178
     18    C      109.5460  105.6470  127.6030 C.ar    2  LIG2        0.1446
     19    C      111.4530  104.7030  126.4720 C.3     2  LIG2        0.1115
     20    C      111.5950  106.0080  125.6740 C.3     2  LIG2        0.0815
     21    C      111.2370  105.7940  124.1980 C.3     2  LIG2        0.0231
     22    C      109.1170  104.7170  123.9310 C.3     2  LIG2        0.0225
     23    C      107.6220  104.8740  123.7150 C.3     2  LIG2        0.0604
     24    C      108.0920  106.8410  122.3430 C.3     2  LIG2        0.0604
     25    C      109.5450  106.7540  122.7940 C.3     2  LIG2        0.0225
     26    C      109.8880  111.6760  125.9810 C.ar    2  LIG2        0.0300
     27    C      109.4820  111.3350  124.5620 C.ar    2  LIG2       -0.0503
     28    C      109.5860  112.2190  123.6240 C.ar    2  LIG2       -0.0605
     29    C      110.1220  113.6010  123.9440 C.ar    2  LIG2       -0.0540
     30    C      110.4540  113.9050  125.1920 C.ar    2  LIG2       -0.0172
     31    C      110.3430  112.8970  126.2610 C.ar    2  LIG2       -0.0071
     32    C      110.7730  113.2450  127.6460 C.ar    2  LIG2       -0.0533
     33    H      111.5110  114.7440  128.9370 H       2  LIG2        0.0618
     34    H      111.7920  116.5460  126.9710 H       2  LIG2        0.0618
     35    H      111.0750  115.9950  124.7100 H       2  LIG2        0.0624
     36    H      111.8320  110.2510  125.1800 H       2  LIG2        0.0292
     37    H      112.9880  108.9240  125.4470 H       2  LIG2        0.0292
     38    H      111.8050  108.8200  124.1210 H       2  LIG2        0.0292
     39    H      107.8440  109.0290  128.9390 H       2  LIG2        0.0624
     40    H      107.0400  106.7600  129.8030 H       2  LIG2        0.0619
     41    H      108.0630  104.6620  129.0290 H       2  LIG2        0.0655
     42    H      111.6660  103.8560  125.8190 H       2  LIG2        0.0718
     43    H      112.2360  104.6560  127.2290 H       2  LIG2        0.0718
     44    H      112.6510  106.2780  125.7040 H       2  LIG2        0.0574
     45    H      111.8060  106.4920  123.5840 H       2  LIG2        0.0448
     46    H      111.5910  104.8130  123.8800 H       2  LIG2        0.0448
     47    H      109.2940  104.2280  124.8880 H       2  LIG2        0.0449
     48    H      109.5190  104.0310  123.1860 H       2  LIG2        0.0449
     49    H      107.1550  103.8890  123.6770 H       2  LIG2        0.0572
     50    H      107.1910  105.4280  124.5500 H       2  LIG2        0.0572
     51    H      107.5830  107.6180  122.9130 H       2  LIG2        0.0572
     52    H      108.0550  107.1790  121.3070 H       2  LIG2        0.0572
     53    H      110.1660  106.4600  121.9480 H       2  LIG2        0.0449
     54    H      109.9160  107.7570  123.0060 H       2  LIG2        0.0449
     55    H      109.1030  110.3510  124.3300 H       2  LIG2        0.0625
     56    H      109.2920  111.9720  122.6150 H       2  LIG2        0.0618
     57    H      110.2300  114.3330  123.1580 H       2  LIG2        0.0624
     58    H      110.7120  112.5030  128.4280 H       2  LIG2        0.0624
@<TRIPOS>BOND
     1    52    24    1
     2    53    25    1
     3    24     8    1
     4    24    25    1
     5    24    51    1
     6     8    23    1
     7    56    28    1
     8    25    54    1
     9    25     5    1
    10    57    29    1
    11    48    22    1
    12    45    21    1
    13    28    29   ar
    14    28    27   ar
    15    49    23    1
    16    23    22    1
    17    23    50    1
    18    46    21    1
    19     5    22    1
    20     5    21    1
    21    22    47    1
    22    29    30   ar
    23    38    12    1
    24    21    20    1
    25    55    27    1
    26    27    26   ar
    27    35     7    1
    28    12    36    1
    29    12    37    1
    30    12    11    1
    31    30     7   ar
    32    30    31   ar
    33     7     4   ar
    34    20    44    1
    35    20     2    1
    36    20    19    1
    37    42    19    1
    38    26    31   ar
    39    26     9    1
    40    11     2   ar
    41    11    10   ar
    42    31    32   ar
    43     2    13   ar
    44    19     6    1
    45    19    43    1
    46     4    34    1
    47     4     1   ar
    48    10     9    1
    49    10    14   ar
    50     6    18    1
    51     9     3    2
    52    13    18   ar
    53    13    14   ar
    54    18    17   ar
    55    32     1   ar
    56    32    58    1
    57    14    15   ar
    58     1    33    1
    59    15    39    1
    60    15    16   ar
    61    17    41    1
    62    17    16   ar
    63    16    40    1
@<TRIPOS>MOLECULE
6pt0_ligand_run_20.pdb
 58 63 0 0 0
SMALL
GASTEIGER

@<TRIPOS>ATOM
      1    C      105.2380  103.8980  124.8450 C.ar    2  LIG2       -0.0611
      2    N      110.1750  108.5300  125.1540 N.ar    2  LIG2       -0.3330
      3    O      109.5750  104.0240  124.5220 O.2     2  LIG2       -0.2866
      4    C      104.1680  103.7690  123.6620 C.ar    2  LIG2       -0.0612
      5    N      110.0610  112.2580  124.4580 N.3     2  LIG2       -0.2959
      6    O      112.4760  109.8040  126.1050 O.3     2  LIG2       -0.4878
      7    C      104.5440  104.0040  122.3830 C.ar    2  LIG2       -0.0540
      8    O      109.4780  115.0610  124.3190 O.3     2  LIG2       -0.3772
      9    C      109.2200  105.0330  124.0120 C.2     2  LIG2        0.1960
     10    C      109.8280  106.3600  124.5090 C.ar    2  LIG2        0.0505
     11    C      109.2090  107.6450  124.6610 C.ar    2  LIG2        0.0281
     12    C      107.7480  108.0030  124.3640 C.3     2  LIG2       -0.0235
     13    C      111.3850  107.9270  125.3260 C.ar    2  LIG2        0.0926
     14    C      111.2330  106.4860  124.9240 C.ar    2  LIG2        0.0146
     15    C      112.3020  105.6100  125.0080 C.ar    2  LIG2       -0.0517
     16    C      113.5310  106.1510  125.4750 C.ar    2  LIG2       -0.0576
     17    C      113.6720  107.5140  125.8590 C.ar    2  LIG2       -0.0178
     18    C      112.4600  108.4440  125.7620 C.ar    2  LIG2        0.1446
     19    C      111.2320  110.4310  126.3540 C.3     2  LIG2        0.1115
     20    C      110.0750  109.9510  125.4640 C.3     2  LIG2        0.0815
     21    C      109.9360  110.8340  124.2180 C.3     2  LIG2        0.0231
     22    C      109.0000  112.8190  125.1730 C.3     2  LIG2        0.0225
     23    C      109.1940  114.2840  125.5200 C.3     2  LIG2        0.0604
     24    C      110.5600  114.5130  123.5060 C.3     2  LIG2        0.0604
     25    C      110.5120  112.9970  123.3540 C.3     2  LIG2        0.0225
     26    C      108.1720  104.9410  122.8960 C.ar    2  LIG2        0.0300
     27    C      108.5720  105.2270  121.4620 C.ar    2  LIG2       -0.0503
     28    C      107.7080  105.1060  120.5090 C.ar    2  LIG2       -0.0605
     29    C      106.2880  104.6800  120.8250 C.ar    2  LIG2       -0.0540
     30    C      105.9460  104.4060  122.0770 C.ar    2  LIG2       -0.0172
     31    C      106.9270  104.5510  123.1670 C.ar    2  LIG2       -0.0071
     32    C      106.5050  104.2900  124.5740 C.ar    2  LIG2       -0.0533
     33    H      104.9500  103.6720  125.8610 H       2  LIG2        0.0618
     34    H      103.1470  103.4950  123.8840 H       2  LIG2        0.0618
     35    H      103.8280  103.9000  121.5810 H       2  LIG2        0.0624
     36    H      107.2260  107.1210  123.9910 H       2  LIG2        0.0292
     37    H      107.2650  108.3500  125.2770 H       2  LIG2        0.0292
     38    H      107.7110  108.7910  123.6120 H       2  LIG2        0.0292
     39    H      112.1750  104.5750  124.7260 H       2  LIG2        0.0624
     40    H      114.4040  105.5210  125.5500 H       2  LIG2        0.0619
     41    H      114.6240  107.8800  126.2120 H       2  LIG2        0.0655
     42    H      111.3440  111.5100  126.2480 H       2  LIG2        0.0718
     43    H      110.9630  110.2940  127.4010 H       2  LIG2        0.0718
     44    H      109.1610  110.0810  126.0440 H       2  LIG2        0.0574
     45    H      110.6720  110.5280  123.4740 H       2  LIG2        0.0448
     46    H      108.9770  110.6330  123.7390 H       2  LIG2        0.0448
     47    H      108.8400  112.2490  126.0880 H       2  LIG2        0.0449
     48    H      108.0790  112.7010  124.6040 H       2  LIG2        0.0449
     49    H      108.2910  114.6670  125.9960 H       2  LIG2        0.0572
     50    H      110.0230  114.3850  126.2210 H       2  LIG2        0.0572
     51    H      111.5180  114.8030  123.9360 H       2  LIG2        0.0572
     52    H      110.5410  114.9750  122.5190 H       2  LIG2        0.0572
     53    H      109.9090  112.7430  122.4830 H       2  LIG2        0.0449
     54    H      111.4970  112.6340  123.0590 H       2  LIG2        0.0449
     55    H      109.5820  105.5340  121.2340 H       2  LIG2        0.0625
     56    H      107.9990  105.3080  119.4890 H       2  LIG2        0.0618
     57    H      105.5590  104.6000  120.0320 H       2  LIG2        0.0624
     58    H      107.2160  104.4140  125.3770 H       2  LIG2        0.0624
@<TRIPOS>BOND
     1    56    28    1
     2    57    29    1
     3    28    29   ar
     4    28    27   ar
     5    29    30   ar
     6    55    27    1
     7    27    26   ar
     8    35     7    1
     9    30     7   ar
    10    30    31   ar
    11     7     4   ar
    12    53    25    1
    13    52    24    1
    14    26    31   ar
    15    26     9    1
    16    54    25    1
    17    31    32   ar
    18    25    24    1
    19    25     5    1
    20    45    21    1
    21    24    51    1
    22    24     8    1
    23    38    12    1
    24     4    34    1
    25     4     1   ar
    26    46    21    1
    27    36    12    1
    28     9    10    1
    29     9     3    2
    30    21     5    1
    31    21    20    1
    32     8    23    1
    33    12    11    1
    34    12    37    1
    35     5    22    1
    36    10    11   ar
    37    10    14   ar
    38    32     1   ar
    39    32    58    1
    40    48    22    1
    41    11     2   ar
    42    39    15    1
    43     1    33    1
    44    14    15   ar
    45    14    13   ar
    46    15    16   ar
    47     2    13   ar
    48     2    20    1
    49    22    23    1
    50    22    47    1
    51    13    18   ar
    52    20    44    1
    53    20    19    1
    54    16    40    1
    55    16    17   ar
    56    23    49    1
    57    23    50    1
    58    18    17   ar
    59    18     6    1
    60    17    41    1
    61     6    19    1
    62    42    19    1
    63    19    43    1
