# Top-energy pose of compounds ranked according to the score (given in kcal/mol).
@<TRIPOS>MOLECULE
11996452_10_run_19.pdb
 42 44 0 0 0
SMALL
GASTEIGER

@<TRIPOS>ATOM
      1    O       27.0510   -0.1850    4.8600 O.3     2  LIG2       -0.3886
      2    C       25.6010    3.8970    3.3850 C.3     2  LIG2       -0.0289
      3    C       24.5110    4.1670    4.4100 C.3     2  LIG2       -0.0284
      4    C       24.3690    2.9700    3.4850 C.3     2  LIG2       -0.0319
      5    C       27.0670    3.3980    3.6190 C.3     2  LIG2       -0.0294
      6    C       27.3590    2.1380    4.4780 C.3     2  LIG2       -0.0090
      7    C       24.5000    1.5040    3.9600 C.3     2  LIG2       -0.0468
      8    C       28.1060    4.4830    4.0390 C.3     2  LIG2       -0.0404
      9    C       27.0230    0.7630    3.8040 C.3     2  LIG2        0.0664
     10    C       28.8150    2.3290    4.9370 C.3     2  LIG2       -0.0471
     11    C       25.5860    0.7040    3.2140 C.3     2  LIG2       -0.0237
     12    C       24.6690    3.9860    5.9390 C.3     2  LIG2       -0.0593
     13    C       23.6070    5.3770    4.1050 C.3     2  LIG2       -0.0593
     14    C       28.9600    3.8350    5.1400 C.3     2  LIG2       -0.0498
     15    C       27.5420    5.8510    4.4740 C.3     2  LIG2       -0.0621
     16    C       28.0380    0.2820    2.7390 C.3     2  LIG2       -0.0358
     17    H       25.6060    4.5750    2.5300 H       2  LIG2        0.0312
     18    H       23.5990    3.0580    2.7160 H       2  LIG2        0.0309
     19    H       27.3810    3.1100    2.6140 H       2  LIG2        0.0310
     20    H       26.7840    2.2040    5.3920 H       2  LIG2        0.0331
     21    H       24.6200    1.4080    5.0370 H       2  LIG2        0.0269
     22    H       23.5440    1.0190    3.7530 H       2  LIG2        0.0269
     23    H       28.7610    4.6770    3.1870 H       2  LIG2        0.0301
     24    H       29.0320    1.7800    5.8550 H       2  LIG2        0.0269
     25    H       29.5280    2.0000    4.1820 H       2  LIG2        0.0269
     26    H       25.2670   -0.3360    3.1280 H       2  LIG2        0.0293
     27    H       25.6070    1.0640    2.1840 H       2  LIG2        0.0293
     28    H       23.6880    3.8940    6.4060 H       2  LIG2        0.0235
     29    H       25.1520    4.8510    6.3910 H       2  LIG2        0.0235
     30    H       25.2220    3.1150    6.2610 H       2  LIG2        0.0235
     31    H       22.6250    5.2620    4.5680 H       2  LIG2        0.0235
     32    H       23.4400    5.5110    3.0350 H       2  LIG2        0.0235
     33    H       24.0480    6.3000    4.4800 H       2  LIG2        0.0235
     34    H       30.0040    4.1430    5.0800 H       2  LIG2        0.0268
     35    H       28.5970    4.1130    6.1310 H       2  LIG2        0.0268
     36    H       26.9100    5.7700    5.3560 H       2  LIG2        0.0233
     37    H       26.9560    6.3140    3.6810 H       2  LIG2        0.0233
     38    H       28.3490    6.5420    4.7190 H       2  LIG2        0.0233
     39    H       28.1550    1.0130    1.9380 H       2  LIG2        0.0257
     40    H       27.7170   -0.6530    2.2780 H       2  LIG2        0.0257
     41    H       29.0250    0.0950    3.1600 H       2  LIG2        0.0257
     42    H       26.3910    0.0670    5.5110 H       2  LIG2        0.2102
@<TRIPOS>BOND
     1    39    16    1
     2    27    11    1
     3    40    16    1
     4    17     2    1
     5    19     5    1
     6    18     4    1
     7    16    41    1
     8    16     9    1
     9    32    13    1
    10    26    11    1
    11    23     8    1
    12    11     9    1
    13    11     7    1
    14     2     4    1
    15     2     5    1
    16     2     3    1
    17     4     7    1
    18     4     3    1
    19     5     8    1
    20     5     6    1
    21    37    15    1
    22    22     7    1
    23     9     6    1
    24     9     1    1
    25     7    21    1
    26     8    15    1
    27     8    14    1
    28    13     3    1
    29    13    33    1
    30    13    31    1
    31    25    10    1
    32     3    12    1
    33    15    38    1
    34    15    36    1
    35     6    10    1
    36     6    20    1
    37     1    42    1
    38    10    14    1
    39    10    24    1
    40    34    14    1
    41    14    35    1
    42    12    30    1
    43    12    29    1
    44    12    28    1
@<TRIPOS>MOLECULE
11996452_11_run_23.pdb
 42 44 0 0 0
SMALL
GASTEIGER

@<TRIPOS>ATOM
      1    O       27.3770    5.4520    5.3750 O.3     2  LIG2       -0.3886
      2    C       27.1180    1.0060    4.3820 C.3     2  LIG2       -0.0289
      3    C       28.1460    0.0680    3.7770 C.3     2  LIG2       -0.0284
      4    C       28.6010    1.1230    4.7630 C.3     2  LIG2       -0.0319
      5    C       26.4680    2.1830    3.6100 C.3     2  LIG2       -0.0294
      6    C       26.3730    3.4440    4.5100 C.3     2  LIG2       -0.0090
      7    C       29.3950    2.3910    4.3700 C.3     2  LIG2       -0.0468
      8    C       25.0420    1.9310    3.0370 C.3     2  LIG2       -0.0404
      9    C       27.6370    4.3690    4.4960 C.3     2  LIG2        0.0664
     10    C       25.0360    4.1030    4.1250 C.3     2  LIG2       -0.0471
     11    C       28.9090    3.6780    5.0750 C.3     2  LIG2       -0.0237
     12    C       28.1220   -1.3880    4.2790 C.3     2  LIG2       -0.0593
     13    C       28.5220    0.1470    2.2780 C.3     2  LIG2       -0.0593
     14    C       24.1260    2.9370    3.7450 C.3     2  LIG2       -0.0498
     15    C       24.5160    0.4820    3.1180 C.3     2  LIG2       -0.0621
     16    C       27.9550    5.0230    3.1280 C.3     2  LIG2       -0.0358
     17    H       26.4610    0.6180    5.1610 H       2  LIG2        0.0312
     18    H       28.9190    0.7510    5.7390 H       2  LIG2        0.0309
     19    H       27.0820    2.4330    2.7490 H       2  LIG2        0.0310
     20    H       26.2410    3.1100    5.5430 H       2  LIG2        0.0331
     21    H       30.4320    2.2230    4.6610 H       2  LIG2        0.0269
     22    H       29.4280    2.5490    3.2950 H       2  LIG2        0.0269
     23    H       25.0530    2.1980    1.9790 H       2  LIG2        0.0301
     24    H       24.6140    4.6830    4.9470 H       2  LIG2        0.0269
     25    H       25.1480    4.7760    3.2750 H       2  LIG2        0.0269
     26    H       28.7440    3.4320    6.1270 H       2  LIG2        0.0293
     27    H       29.7350    4.3920    5.0720 H       2  LIG2        0.0293
     28    H       29.0990   -1.8570    4.1710 H       2  LIG2        0.0235
     29    H       27.4000   -1.9820    3.7160 H       2  LIG2        0.0235
     30    H       27.8430   -1.4560    5.3310 H       2  LIG2        0.0235
     31    H       29.5030   -0.2950    2.1050 H       2  LIG2        0.0235
     32    H       28.5580    1.1550    1.8740 H       2  LIG2        0.0235
     33    H       27.8010   -0.4050    1.6750 H       2  LIG2        0.0235
     34    H       23.3070    3.2660    3.1050 H       2  LIG2        0.0268
     35    H       23.6820    2.4980    4.6410 H       2  LIG2        0.0268
     36    H       24.4090    0.1430    4.1490 H       2  LIG2        0.0233
     37    H       25.1860   -0.2090    2.6050 H       2  LIG2        0.0233
     38    H       23.5370    0.3970    2.6450 H       2  LIG2        0.0233
     39    H       28.1830    4.2900    2.3550 H       2  LIG2        0.0257
     40    H       28.8220    5.6840    3.1950 H       2  LIG2        0.0257
     41    H       27.1320    5.6350    2.7590 H       2  LIG2        0.0257
     42    H       27.2090    5.0970    6.2520 H       2  LIG2        0.2102
@<TRIPOS>BOND
     1    33    13    1
     2    32    13    1
     3    23     8    1
     4    31    13    1
     5    13     3    1
     6    39    16    1
     7    37    15    1
     8    38    15    1
     9    19     5    1
    10    41    16    1
    11     8    15    1
    12     8     5    1
    13     8    14    1
    14    34    14    1
    15    15    36    1
    16    16    40    1
    17    16     9    1
    18    25    10    1
    19    22     7    1
    20     5     2    1
    21     5     6    1
    22    29    12    1
    23    14    10    1
    24    14    35    1
    25     3    12    1
    26     3     2    1
    27     3     4    1
    28    10     6    1
    29    10    24    1
    30    28    12    1
    31    12    30    1
    32     7    21    1
    33     7     4    1
    34     7    11    1
    35     2     4    1
    36     2    17    1
    37     9     6    1
    38     9    11    1
    39     9     1    1
    40     6    20    1
    41     4    18    1
    42    27    11    1
    43    11    26    1
    44     1    42    1
@<TRIPOS>MOLECULE
11996452_3_run_3.pdb
 42 44 0 0 0
SMALL
GASTEIGER

@<TRIPOS>ATOM
      1    O       27.5620    5.1990    5.6050 O.3     2  LIG2       -0.3886
      2    C       27.2260    0.7720    4.5270 C.3     2  LIG2       -0.0289
      3    C       28.1790   -0.1100    3.7380 C.3     2  LIG2       -0.0284
      4    C       28.7420    0.8890    4.7260 C.3     2  LIG2       -0.0319
      5    C       26.4480    1.9610    3.9060 C.3     2  LIG2       -0.0294
      6    C       26.4550    3.2280    4.7980 C.3     2  LIG2       -0.0090
      7    C       29.4730    2.1860    4.3170 C.3     2  LIG2       -0.0468
      8    C       24.9580    1.6170    3.6400 C.3     2  LIG2       -0.0404
      9    C       27.7300    4.1340    4.6840 C.3     2  LIG2        0.0664
     10    C       25.1200    3.9220    4.4630 C.3     2  LIG2       -0.0471
     11    C       29.0410    3.4240    5.1310 C.3     2  LIG2       -0.0237
     12    C       28.2360   -1.5940    4.1450 C.3     2  LIG2       -0.0593
     13    C       28.3730    0.0690    2.2140 C.3     2  LIG2       -0.0593
     14    C       24.1300    2.7960    4.1810 C.3     2  LIG2       -0.0498
     15    C       24.6540    1.2680    2.1720 C.3     2  LIG2       -0.0621
     16    C       27.9340    4.8140    3.3040 C.3     2  LIG2       -0.0358
     17    H       26.6770    0.3200    5.3540 H       2  LIG2        0.0312
     18    H       29.1850    0.4620    5.6270 H       2  LIG2        0.0309
     19    H       26.8860    2.2470    2.9540 H       2  LIG2        0.0310
     20    H       26.3780    2.9000    5.8390 H       2  LIG2        0.0331
     21    H       30.5370    2.0250    4.4960 H       2  LIG2        0.0269
     22    H       29.3970    2.3930    3.2520 H       2  LIG2        0.0269
     23    H       24.6780    0.7470    4.2370 H       2  LIG2        0.0301
     24    H       24.7750    4.5570    5.2790 H       2  LIG2        0.0269
     25    H       25.2050    4.5530    3.5780 H       2  LIG2        0.0269
     26    H       28.9570    3.1220    6.1770 H       2  LIG2        0.0293
     27    H       29.8630    4.1430    5.1040 H       2  LIG2        0.0293
     28    H       29.1970   -2.0350    3.8820 H       2  LIG2        0.0235
     29    H       27.4550   -2.1670    3.6430 H       2  LIG2        0.0235
     30    H       28.0990   -1.7320    5.2180 H       2  LIG2        0.0235
     31    H       29.3400   -0.3290    1.9030 H       2  LIG2        0.0235
     32    H       28.3350    1.1000    1.8720 H       2  LIG2        0.0235
     33    H       27.6030   -0.4730    1.6640 H       2  LIG2        0.0235
     34    H       23.3530    3.1220    3.4860 H       2  LIG2        0.0268
     35    H       23.6250    2.5060    5.1030 H       2  LIG2        0.0268
     36    H       24.8840    2.1030    1.5090 H       2  LIG2        0.0233
     37    H       23.6010    1.0170    2.0370 H       2  LIG2        0.0233
     38    H       25.2410    0.4100    1.8440 H       2  LIG2        0.0233
     39    H       28.0180    4.0930    2.4920 H       2  LIG2        0.0257
     40    H       28.8450    5.4140    3.2880 H       2  LIG2        0.0257
     41    H       27.1200    5.4910    3.0480 H       2  LIG2        0.0257
     42    H       27.4330    4.8260    6.4800 H       2  LIG2        0.2102
@<TRIPOS>BOND
     1    36    15    1
     2    33    13    1
     3    38    15    1
     4    32    13    1
     5    31    13    1
     6    37    15    1
     7    15     8    1
     8    13     3    1
     9    39    16    1
    10    19     5    1
    11    41    16    1
    12    22     7    1
    13    40    16    1
    14    16     9    1
    15    34    14    1
    16    25    10    1
    17     8     5    1
    18     8    14    1
    19     8    23    1
    20    29    12    1
    21     3    12    1
    22     3     2    1
    23     3     4    1
    24    28    12    1
    25     5     2    1
    26     5     6    1
    27    12    30    1
    28    14    10    1
    29    14    35    1
    30     7    21    1
    31     7     4    1
    32     7    11    1
    33    10     6    1
    34    10    24    1
    35     2     4    1
    36     2    17    1
    37     9     6    1
    38     9    11    1
    39     9     1    1
    40     4    18    1
    41     6    20    1
    42    27    11    1
    43    11    26    1
    44     1    42    1
@<TRIPOS>MOLECULE
11996452_8_run_10.pdb
 42 44 0 0 0
SMALL
GASTEIGER

@<TRIPOS>ATOM
      1    O       27.0190    5.8640    5.1050 O.3     2  LIG2       -0.3886
      2    C       27.5480    1.7860    3.3000 C.3     2  LIG2       -0.0289
      3    C       28.3810    0.5770    3.7110 C.3     2  LIG2       -0.0284
      4    C       28.8950    1.9620    4.0160 C.3     2  LIG2       -0.0319
      5    C       26.2390    2.2090    4.0270 C.3     2  LIG2       -0.0294
      6    C       26.1370    3.6560    4.6230 C.3     2  LIG2       -0.0090
      7    C       28.8850    2.6100    5.4120 C.3     2  LIG2       -0.0468
      8    C       24.9920    2.0170    3.1350 C.3     2  LIG2       -0.0404
      9    C       27.3820    4.6130    4.5380 C.3     2  LIG2        0.0664
     10    C       24.8090    4.2280    4.0770 C.3     2  LIG2       -0.0471
     11    C       28.6010    4.1260    5.3880 C.3     2  LIG2       -0.0237
     12    C       27.9390   -0.3750    4.8470 C.3     2  LIG2       -0.0593
     13    C       29.0790   -0.1880    2.5710 C.3     2  LIG2       -0.0593
     14    C       23.9680    3.0200    3.6700 C.3     2  LIG2       -0.0498
     15    C       24.4800    0.5660    3.0980 C.3     2  LIG2       -0.0621
     16    C       27.8240    5.0000    3.1010 C.3     2  LIG2       -0.0358
     17    H       27.5270    2.0420    2.2410 H       2  LIG2        0.0312
     18    H       29.7550    2.2970    3.4330 H       2  LIG2        0.0309
     19    H       26.0990    1.5540    4.8850 H       2  LIG2        0.0310
     20    H       25.9630    3.5290    5.6940 H       2  LIG2        0.0331
     21    H       28.1510    2.1400    6.0630 H       2  LIG2        0.0269
     22    H       29.8490    2.4340    5.8910 H       2  LIG2        0.0269
     23    H       25.2260    2.3190    2.1110 H       2  LIG2        0.0301
     24    H       24.2890    4.8300    4.8230 H       2  LIG2        0.0269
     25    H       24.9730    4.8700    3.2120 H       2  LIG2        0.0269
     26    H       28.4640    4.4140    6.4330 H       2  LIG2        0.0293
     27    H       29.5070    4.6430    5.0650 H       2  LIG2        0.0293
     28    H       28.7930   -0.9300    5.2370 H       2  LIG2        0.0235
     29    H       27.2160   -1.1020    4.4780 H       2  LIG2        0.0235
     30    H       27.4800    0.1200    5.6990 H       2  LIG2        0.0235
     31    H       29.9630   -0.7140    2.9350 H       2  LIG2        0.0235
     32    H       29.4030    0.4750    1.7690 H       2  LIG2        0.0235
     33    H       28.4080   -0.9270    2.1290 H       2  LIG2        0.0235
     34    H       23.2210    3.2860    2.9210 H       2  LIG2        0.0268
     35    H       23.4390    2.6130    4.5340 H       2  LIG2        0.0268
     36    H       24.2090    0.2090    4.0920 H       2  LIG2        0.0233
     37    H       25.2410   -0.1070    2.7000 H       2  LIG2        0.0233
     38    H       23.5990    0.4770    2.4620 H       2  LIG2        0.0233
     39    H       28.2390    4.1690    2.5390 H       2  LIG2        0.0257
     40    H       28.6020    5.7650    3.1150 H       2  LIG2        0.0257
     41    H       27.0040    5.4050    2.5080 H       2  LIG2        0.0257
     42    H       26.7960    5.7230    6.0280 H       2  LIG2        0.2102
@<TRIPOS>BOND
     1    32    13    1
     2    23     8    1
     3    33    13    1
     4    17     2    1
     5    38    15    1
     6    41    16    1
     7    39    16    1
     8    13    31    1
     9    13     3    1
    10    37    15    1
    11    34    14    1
    12    15     8    1
    13    15    36    1
    14    16    40    1
    15    16     9    1
    16     8    14    1
    17     8     5    1
    18    25    10    1
    19     2     3    1
    20     2     4    1
    21     2     5    1
    22    18     4    1
    23    14    10    1
    24    14    35    1
    25     3     4    1
    26     3    12    1
    27     4     7    1
    28     5     6    1
    29     5    19    1
    30    10     6    1
    31    10    24    1
    32    29    12    1
    33     9     6    1
    34     9     1    1
    35     9    11    1
    36     6    20    1
    37    12    28    1
    38    12    30    1
    39    27    11    1
    40     1    42    1
    41    11     7    1
    42    11    26    1
    43     7    22    1
    44     7    21    1
@<TRIPOS>MOLECULE
11996452_2_run_22.pdb
 42 44 0 0 0
SMALL
GASTEIGER

@<TRIPOS>ATOM
      1    O       26.9840    3.7150    6.6050 O.3     2  LIG2       -0.3886
      2    C       28.0550    0.8600    3.1740 C.3     2  LIG2       -0.0289
      3    C       28.1540   -0.4900    3.8620 C.3     2  LIG2       -0.0284
      4    C       29.0940    0.6210    4.2920 C.3     2  LIG2       -0.0319
      5    C       26.8720    1.8750    3.2880 C.3     2  LIG2       -0.0294
      6    C       26.4580    2.5000    4.6430 C.3     2  LIG2       -0.0090
      7    C       28.9960    1.3600    5.6440 C.3     2  LIG2       -0.0468
      8    C       25.5600    1.3420    2.6670 C.3     2  LIG2       -0.0404
      9    C       27.4820    3.4930    5.2950 C.3     2  LIG2        0.0664
     10    C       25.0580    3.0750    4.3470 C.3     2  LIG2       -0.0471
     11    C       28.9040    2.8890    5.4790 C.3     2  LIG2       -0.0237
     12    C       27.0670   -1.0430    4.8110 C.3     2  LIG2       -0.0593
     13    C       28.7720   -1.6250    3.0220 C.3     2  LIG2       -0.0593
     14    C       24.4130    2.1260    3.3330 C.3     2  LIG2       -0.0498
     15    C       25.5330    1.3930    1.1280 C.3     2  LIG2       -0.0621
     16    C       27.5950    4.8760    4.6090 C.3     2  LIG2       -0.0358
     17    H       28.4470    0.8910    2.1570 H       2  LIG2        0.0312
     18    H       30.1370    0.4870    4.0020 H       2  LIG2        0.0309
     19    H       27.1780    2.7280    2.6790 H       2  LIG2        0.0310
     20    H       26.2780    1.7010    5.3550 H       2  LIG2        0.0331
     21    H       28.2040    0.9820    6.2870 H       2  LIG2        0.0269
     22    H       29.9150    1.1450    6.1900 H       2  LIG2        0.0269
     23    H       25.4360    0.2980    2.9550 H       2  LIG2        0.0301
     24    H       24.4530    3.1570    5.2520 H       2  LIG2        0.0269
     25    H       25.1140    4.0710    3.9090 H       2  LIG2        0.0269
     26    H       29.4060    3.3690    6.3230 H       2  LIG2        0.0293
     27    H       29.5230    3.1600    4.6210 H       2  LIG2        0.0293
     28    H       27.4920   -1.7970    5.4740 H       2  LIG2        0.0235
     29    H       26.2680   -1.5230    4.2460 H       2  LIG2        0.0235
     30    H       26.5980   -0.3090    5.4530 H       2  LIG2        0.0235
     31    H       29.2170   -2.3900    3.6600 H       2  LIG2        0.0235
     32    H       29.5570   -1.2660    2.3550 H       2  LIG2        0.0235
     33    H       28.0160   -2.1060    2.4000 H       2  LIG2        0.0235
     34    H       23.8090    2.6790    2.6130 H       2  LIG2        0.0268
     35    H       23.7390    1.4370    3.8430 H       2  LIG2        0.0268
     36    H       25.6350    2.4150    0.7610 H       2  LIG2        0.0233
     37    H       24.5970    0.9920    0.7390 H       2  LIG2        0.0233
     38    H       26.3440    0.8030    0.6990 H       2  LIG2        0.0233
     39    H       27.8820    4.7820    3.5610 H       2  LIG2        0.0257
     40    H       28.3490    5.4980    5.0940 H       2  LIG2        0.0257
     41    H       26.6640    5.4400    4.6470 H       2  LIG2        0.0257
     42    H       27.4720    4.4430    6.9970 H       2  LIG2        0.2102
@<TRIPOS>BOND
     1    38    15    1
     2    37    15    1
     3    36    15    1
     4    15     8    1
     5    17     2    1
     6    32    13    1
     7    33    13    1
     8    34    14    1
     9     8    23    1
    10     8     5    1
    11     8    14    1
    12    19     5    1
    13    13    31    1
    14    13     3    1
    15     2     5    1
    16     2     3    1
    17     2     4    1
    18     5     6    1
    19    14    35    1
    20    14    10    1
    21    39    16    1
    22     3     4    1
    23     3    12    1
    24    25    10    1
    25    18     4    1
    26    29    12    1
    27     4     7    1
    28    10     6    1
    29    10    24    1
    30    16    41    1
    31    16    40    1
    32    16     9    1
    33    27    11    1
    34     6     9    1
    35     6    20    1
    36    12    30    1
    37    12    28    1
    38     9    11    1
    39     9     1    1
    40    11     7    1
    41    11    26    1
    42     7    22    1
    43     7    21    1
    44     1    42    1
@<TRIPOS>MOLECULE
11996452_4_run_21.pdb
 42 44 0 0 0
SMALL
GASTEIGER

@<TRIPOS>ATOM
      1    O       26.7250    4.3930    6.2910 O.3     2  LIG2       -0.3886
      2    C       27.2880    1.6730    3.3150 C.3     2  LIG2       -0.0289
      3    C       28.2490    0.5910    3.7730 C.3     2  LIG2       -0.0284
      4    C       28.7400    2.0190    3.6660 C.3     2  LIG2       -0.0319
      5    C       26.1670    2.2600    4.2110 C.3     2  LIG2       -0.0294
      6    C       26.0550    3.7980    4.0200 C.3     2  LIG2       -0.0090
      7    C       29.0280    2.9310    4.8810 C.3     2  LIG2       -0.0468
      8    C       24.7410    1.6680    4.0110 C.3     2  LIG2       -0.0404
      9    C       27.0030    4.6600    4.9250 C.3     2  LIG2        0.0664
     10    C       24.5490    4.0890    4.1640 C.3     2  LIG2       -0.0471
     11    C       28.5210    4.3810    4.7030 C.3     2  LIG2       -0.0237
     12    C       28.0830   -0.1040    5.1430 C.3     2  LIG2       -0.0593
     13    C       28.7300   -0.3960    2.6930 C.3     2  LIG2       -0.0593
     14    C       23.8530    2.8520    3.6050 C.3     2  LIG2       -0.0498
     15    C       24.6220    0.4750    3.0400 C.3     2  LIG2       -0.0621
     16    C       26.7530    6.1740    4.7290 C.3     2  LIG2       -0.0358
     17    H       27.0320    1.7220    2.2560 H       2  LIG2        0.0312
     18    H       29.4430    2.2170    2.8550 H       2  LIG2        0.0309
     19    H       26.4060    2.0770    5.2560 H       2  LIG2        0.0310
     20    H       26.3060    4.0350    2.9840 H       2  LIG2        0.0331
     21    H       28.6480    2.5240    5.8150 H       2  LIG2        0.0269
     22    H       30.1110    2.9690    5.0090 H       2  LIG2        0.0269
     23    H       24.3830    1.3170    4.9810 H       2  LIG2        0.0301
     24    H       24.2750    4.2360    5.2100 H       2  LIG2        0.0269
     25    H       24.2520    4.9860    3.6180 H       2  LIG2        0.0269
     26    H       29.0990    5.0260    5.3670 H       2  LIG2        0.0293
     27    H       28.7930    4.7080    3.6970 H       2  LIG2        0.0293
     28    H       29.0280   -0.5370    5.4710 H       2  LIG2        0.0235
     29    H       27.3560   -0.9140    5.0770 H       2  LIG2        0.0235
     30    H       27.7470    0.5500    5.9440 H       2  LIG2        0.0235
     31    H       29.6980   -0.8230    2.9550 H       2  LIG2        0.0235
     32    H       28.8400    0.0840    1.7180 H       2  LIG2        0.0235
     33    H       28.0230   -1.2150    2.5710 H       2  LIG2        0.0235
     34    H       23.7750    2.9250    2.5180 H       2  LIG2        0.0268
     35    H       22.8400    2.7570    3.9960 H       2  LIG2        0.0268
     36    H       24.9030    0.7480    2.0220 H       2  LIG2        0.0233
     37    H       23.5990    0.1020    3.0060 H       2  LIG2        0.0233
     38    H       25.2600   -0.3530    3.3540 H       2  LIG2        0.0233
     39    H       26.9260    6.4710    3.6940 H       2  LIG2        0.0257
     40    H       27.4100    6.7790    5.3550 H       2  LIG2        0.0257
     41    H       25.7300    6.4570    4.9820 H       2  LIG2        0.0257
     42    H       27.2060    5.0280    6.8280 H       2  LIG2        0.2102
@<TRIPOS>BOND
     1    32    13    1
     2    36    15    1
     3    17     2    1
     4    34    14    1
     5    33    13    1
     6    13    31    1
     7    13     3    1
     8    18     4    1
     9    20     6    1
    10    37    15    1
    11    15    38    1
    12    15     8    1
    13     2     4    1
    14     2     3    1
    15     2     5    1
    16    14    35    1
    17    14     8    1
    18    14    10    1
    19    25    10    1
    20     4     3    1
    21     4     7    1
    22    39    16    1
    23    27    11    1
    24     3    12    1
    25     8     5    1
    26     8    23    1
    27     6    10    1
    28     6     5    1
    29     6     9    1
    30    10    24    1
    31     5    19    1
    32    11     7    1
    33    11     9    1
    34    11    26    1
    35    16     9    1
    36    16    41    1
    37    16    40    1
    38     7    22    1
    39     7    21    1
    40     9     1    1
    41    29    12    1
    42    12    28    1
    43    12    30    1
    44     1    42    1
@<TRIPOS>MOLECULE
11996452_5_run_23.pdb
 42 44 0 0 0
SMALL
GASTEIGER

@<TRIPOS>ATOM
      1    O       29.8490   -0.0540    3.7030 O.3     2  LIG2       -0.3886
      2    C       27.1400    3.1730    3.2700 C.3     2  LIG2       -0.0289
      3    C       26.6360    4.1330    4.3320 C.3     2  LIG2       -0.0284
      4    C       28.1340    4.0300    4.0860 C.3     2  LIG2       -0.0319
      5    C       27.1380    1.6060    3.2860 C.3     2  LIG2       -0.0294
      6    C       27.6790    0.8140    4.5070 C.3     2  LIG2       -0.0090
      7    C       29.1240    3.3770    5.0810 C.3     2  LIG2       -0.0468
      8    C       25.8110    0.9160    2.8490 C.3     2  LIG2       -0.0404
      9    C       29.2360    0.7960    4.6610 C.3     2  LIG2        0.0664
     10    C       27.0080   -0.5660    4.3810 C.3     2  LIG2       -0.0471
     11    C       29.9050    2.1880    4.4900 C.3     2  LIG2       -0.0237
     12    C       25.9450    5.4030    3.7960 C.3     2  LIG2       -0.0593
     13    C       26.0160    3.7140    5.6880 C.3     2  LIG2       -0.0593
     14    C       25.6270   -0.2780    3.8000 C.3     2  LIG2       -0.0498
     15    C       24.5530    1.8090    2.8000 C.3     2  LIG2       -0.0621
     16    C       29.6300    0.2030    6.0340 C.3     2  LIG2       -0.0358
     17    H       26.9840    3.4990    2.2400 H       2  LIG2        0.0312
     18    H       28.5910    4.8900    3.5930 H       2  LIG2        0.0309
     19    H       27.8380    1.3580    2.4850 H       2  LIG2        0.0310
     20    H       27.2710    1.2320    5.4160 H       2  LIG2        0.0331
     21    H       29.8560    4.1430    5.3420 H       2  LIG2        0.0269
     22    H       28.6670    3.1100    6.0310 H       2  LIG2        0.0269
     23    H       25.9470    0.5180    1.8420 H       2  LIG2        0.0301
     24    H       27.5620   -1.2240    3.7110 H       2  LIG2        0.0269
     25    H       26.9310   -1.0740    5.3440 H       2  LIG2        0.0269
     26    H       30.0750    2.4000    3.4320 H       2  LIG2        0.0293
     27    H       30.9020    2.1720    4.9350 H       2  LIG2        0.0293
     28    H       26.0150    6.2210    4.5130 H       2  LIG2        0.0235
     29    H       24.8880    5.2180    3.6010 H       2  LIG2        0.0235
     30    H       26.3890    5.7550    2.8650 H       2  LIG2        0.0235
     31    H       26.0320    4.5570    6.3790 H       2  LIG2        0.0235
     32    H       26.5150    2.9120    6.2110 H       2  LIG2        0.0235
     33    H       24.9730    3.4220    5.5710 H       2  LIG2        0.0235
     34    H       24.9310   -0.0330    4.6050 H       2  LIG2        0.0268
     35    H       25.2260   -1.1520    3.2840 H       2  LIG2        0.0268
     36    H       24.3130    2.2270    3.7750 H       2  LIG2        0.0233
     37    H       23.6860    1.2370    2.4700 H       2  LIG2        0.0233
     38    H       24.6760    2.6350    2.1000 H       2  LIG2        0.0233
     39    H       29.2430    0.8080    6.8550 H       2  LIG2        0.0257
     40    H       30.7130    0.1450    6.1610 H       2  LIG2        0.0257
     41    H       29.2420   -0.8080    6.1670 H       2  LIG2        0.0257
     42    H       30.7930    0.1160    3.7070 H       2  LIG2        0.2102
@<TRIPOS>BOND
     1    23     8    1
     2    38    15    1
     3    17     2    1
     4    37    15    1
     5    19     5    1
     6    15     8    1
     7    15    36    1
     8     8     5    1
     9     8    14    1
    10    30    12    1
    11     2     5    1
    12     2     4    1
    13     2     3    1
    14    35    14    1
    15     5     6    1
    16    26    11    1
    17    18     4    1
    18    29    12    1
    19     1    42    1
    20     1     9    1
    21    24    10    1
    22    12     3    1
    23    12    28    1
    24    14    10    1
    25    14    34    1
    26     4     3    1
    27     4     7    1
    28     3    13    1
    29    10     6    1
    30    10    25    1
    31    11     9    1
    32    11    27    1
    33    11     7    1
    34     6     9    1
    35     6    20    1
    36     9    16    1
    37     7    21    1
    38     7    22    1
    39    33    13    1
    40    13    32    1
    41    13    31    1
    42    16    40    1
    43    16    41    1
    44    16    39    1
@<TRIPOS>MOLECULE
11996452_6_run_17.pdb
 42 44 0 0 0
SMALL
GASTEIGER

@<TRIPOS>ATOM
      1    O       26.0960    6.0930    5.0650 O.3     2  LIG2       -0.3886
      2    C       27.6500    2.3200    3.1400 C.3     2  LIG2       -0.0289
      3    C       28.3440    1.0600    3.6790 C.3     2  LIG2       -0.0284
      4    C       28.4250    2.3570    4.4610 C.3     2  LIG2       -0.0319
      5    C       26.1330    2.7110    3.1300 C.3     2  LIG2       -0.0294
      6    C       25.7850    4.1670    3.5850 C.3     2  LIG2       -0.0090
      7    C       27.6270    2.6730    5.7430 C.3     2  LIG2       -0.0468
      8    C       25.0370    1.7650    3.7070 C.3     2  LIG2       -0.0404
      9    C       26.7380    4.9170    4.5950 C.3     2  LIG2        0.0664
     10    C       24.2930    4.0760    3.9810 C.3     2  LIG2       -0.0471
     11    C       27.1750    4.1430    5.8810 C.3     2  LIG2       -0.0237
     12    C       27.6420   -0.1690    4.3040 C.3     2  LIG2       -0.0593
     13    C       29.6150    0.6380    2.9150 C.3     2  LIG2       -0.0593
     14    C       24.0750    2.6610    4.5000 C.3     2  LIG2       -0.0498
     15    C       24.3340    0.8970    2.6450 C.3     2  LIG2       -0.0621
     16    C       27.9740    5.5220    3.8720 C.3     2  LIG2       -0.0358
     17    H       28.1420    2.7990    2.2920 H       2  LIG2        0.0312
     18    H       29.4070    2.8320    4.4850 H       2  LIG2        0.0309
     19    H       25.9160    2.7300    2.0600 H       2  LIG2        0.0310
     20    H       25.7990    4.7840    2.6840 H       2  LIG2        0.0331
     21    H       26.7460    2.0490    5.8370 H       2  LIG2        0.0269
     22    H       28.2390    2.4100    6.6070 H       2  LIG2        0.0269
     23    H       25.4390    1.0780    4.4350 H       2  LIG2        0.0301
     24    H       23.9840    4.8050    4.7300 H       2  LIG2        0.0269
     25    H       23.6660    4.2490    3.1050 H       2  LIG2        0.0269
     26    H       26.3510    4.1420    6.5970 H       2  LIG2        0.0293
     27    H       27.9800    4.6930    6.3700 H       2  LIG2        0.0293
     28    H       28.3780   -0.8970    4.6460 H       2  LIG2        0.0235
     29    H       27.0160   -0.6730    3.5690 H       2  LIG2        0.0235
     30    H       27.0410    0.0380    5.1840 H       2  LIG2        0.0235
     31    H       30.3050    0.0980    3.5650 H       2  LIG2        0.0235
     32    H       30.1600    1.4930    2.5120 H       2  LIG2        0.0235
     33    H       29.3670   -0.0120    2.0760 H       2  LIG2        0.0235
     34    H       23.0310    2.3600    4.3920 H       2  LIG2        0.0268
     35    H       24.3070    2.6150    5.5650 H       2  LIG2        0.0268
     36    H       23.8120    1.5100    1.9090 H       2  LIG2        0.0233
     37    H       23.5990    0.2330    3.1020 H       2  LIG2        0.0233
     38    H       25.0510    0.2730    2.1110 H       2  LIG2        0.0233
     39    H       28.6220    4.7760    3.4230 H       2  LIG2        0.0257
     40    H       28.5990    6.1060    4.5510 H       2  LIG2        0.0257
     41    H       27.6770    6.1930    3.0640 H       2  LIG2        0.0257
     42    H       26.6510    6.4930    5.7390 H       2  LIG2        0.2102
@<TRIPOS>BOND
     1    36    15    1
     2    19     5    1
     3    33    13    1
     4    38    15    1
     5    17     2    1
     6    32    13    1
     7    15    37    1
     8    15     8    1
     9    20     6    1
    10    13    31    1
    11    13     3    1
    12    41    16    1
    13    25    10    1
    14     5     2    1
    15     5     6    1
    16     5     8    1
    17     2     3    1
    18     2     4    1
    19    39    16    1
    20    29    12    1
    21     6    10    1
    22     6     9    1
    23     3    12    1
    24     3     4    1
    25     8    23    1
    26     8    14    1
    27    16    40    1
    28    16     9    1
    29    10    14    1
    30    10    24    1
    31    12    28    1
    32    12    30    1
    33    34    14    1
    34     4    18    1
    35     4     7    1
    36    14    35    1
    37     9     1    1
    38     9    11    1
    39     1    42    1
    40     7    21    1
    41     7    11    1
    42     7    22    1
    43    11    27    1
    44    11    26    1
@<TRIPOS>MOLECULE
5281519_run_8.pdb
 39 39 0 0 0
SMALL
GASTEIGER

@<TRIPOS>ATOM
      1    C       25.1100    3.1670    4.3300 C.3     2  LIG2       -0.0275
      2    C       26.4050    3.8970    4.7500 C.2     2  LIG2       -0.0668
      3    C       25.1160    2.4410    2.9500 C.3     2  LIG2       -0.0283
      4    C       27.2160    3.1790    5.8510 C.3     2  LIG2       -0.0130
      5    C       25.9250    1.1490    2.9150 C.2     2  LIG2       -0.0762
      6    C       28.8250    0.0650    4.0810 C.3     2  LIG2       -0.0286
      7    C       28.2350    0.0560    2.6380 C.3     2  LIG2       -0.0308
      8    C       28.7660    1.4390    4.7520 C.2     2  LIG2       -0.0759
      9    C       26.7740    5.0900    4.1990 C.2     2  LIG2       -0.0762
     10    C       27.6600    1.7870    5.4470 C.2     2  LIG2       -0.0810
     11    C       27.1780    1.1350    2.4110 C.2     2  LIG2       -0.0847
     12    C       25.2670   -0.0470    3.5930 C.3     2  LIG2       -0.0438
     13    C       29.8850    2.3950    4.3640 C.3     2  LIG2       -0.0438
     14    C       25.9810    5.8050    3.1060 C.3     2  LIG2       -0.0438
     15    C       28.0080    5.8910    4.6050 C.3     2  LIG2       -0.0438
     16    H       24.8130    2.4750    5.1190 H       2  LIG2        0.0313
     17    H       24.3060    3.9020    4.3270 H       2  LIG2        0.0313
     18    H       24.0930    2.2020    2.6580 H       2  LIG2        0.0313
     19    H       25.4820    3.1180    2.1780 H       2  LIG2        0.0313
     20    H       28.1020    3.7300    6.1500 H       2  LIG2        0.0352
     21    H       26.6110    3.1140    6.7560 H       2  LIG2        0.0352
     22    H       28.2510   -0.6360    4.6880 H       2  LIG2        0.0313
     23    H       29.8460   -0.3210    4.0920 H       2  LIG2        0.0313
     24    H       29.0340    0.2430    1.9190 H       2  LIG2        0.0310
     25    H       27.8410   -0.9280    2.3840 H       2  LIG2        0.0310
     26    H       26.9090    1.0300    5.6190 H       2  LIG2        0.0575
     27    H       27.5640    2.0470    1.9770 H       2  LIG2        0.0572
     28    H       24.9450    0.2020    4.6050 H       2  LIG2        0.0274
     29    H       25.9280   -0.9090    3.6640 H       2  LIG2        0.0274
     30    H       24.3890   -0.3570    3.0250 H       2  LIG2        0.0274
     31    H       30.8170    2.0860    4.8380 H       2  LIG2        0.0274
     32    H       29.6910    3.4230    4.6630 H       2  LIG2        0.0274
     33    H       30.0330    2.3930    3.2840 H       2  LIG2        0.0274
     34    H       25.6810    6.7970    3.4440 H       2  LIG2        0.0274
     35    H       25.0730    5.2920    2.7990 H       2  LIG2        0.0274
     36    H       26.5990    5.9200    2.2160 H       2  LIG2        0.0274
     37    H       27.8070    6.9630    4.5590 H       2  LIG2        0.0274
     38    H       28.8270    5.6820    3.9160 H       2  LIG2        0.0274
     39    H       28.3560    5.6990    5.6170 H       2  LIG2        0.0274
@<TRIPOS>BOND
     1    24     7    1
     2    27    11    1
     3    19     3    1
     4    36    14    1
     5    25     7    1
     6    11     7    1
     7    11     5    2
     8     7     6    1
     9    18     3    1
    10    35    14    1
    11     5     3    1
    12     5    12    1
    13     3     1    1
    14    30    12    1
    15    14    34    1
    16    14     9    1
    17    33    13    1
    18    12    29    1
    19    12    28    1
    20    38    15    1
    21     6    23    1
    22     6    22    1
    23     6     8    1
    24     9    15    1
    25     9     2    2
    26    17     1    1
    27     1     2    1
    28     1    16    1
    29    13    32    1
    30    13     8    1
    31    13    31    1
    32    37    15    1
    33    15    39    1
    34     2     4    1
    35     8    10    2
    36    10    26    1
    37    10     4    1
    38     4    20    1
    39     4    21    1
@<TRIPOS>MOLECULE
11996452_1_run_9.pdb
 42 44 0 0 0
SMALL
GASTEIGER

@<TRIPOS>ATOM
      1    O       25.3830    4.3390    2.6080 O.3     2  LIG2       -0.3886
      2    C       27.6040    1.6480    2.8520 C.3     2  LIG2       -0.0289
      3    C       27.1800    0.2860    3.3810 C.3     2  LIG2       -0.0284
      4    C       26.2350    1.0420    2.4710 C.3     2  LIG2       -0.0319
      5    C       27.9010    2.9650    3.6550 C.3     2  LIG2       -0.0294
      6    C       26.8540    3.7870    4.4520 C.3     2  LIG2       -0.0090
      7    C       24.8280    1.5160    2.9070 C.3     2  LIG2       -0.0468
      8    C       29.0970    2.8950    4.6410 C.3     2  LIG2       -0.0404
      9    C       25.3870    3.8730    3.9490 C.3     2  LIG2        0.0664
     10    C       27.0870    3.4710    5.9460 C.3     2  LIG2       -0.0471
     11    C       24.6060    2.5440    4.0270 C.3     2  LIG2       -0.0237
     12    C       27.8750   -0.9430    2.7610 C.3     2  LIG2       -0.0593
     13    C       26.8420    0.0410    4.8610 C.3     2  LIG2       -0.0593
     14    C       28.4790    2.8280    6.0470 C.3     2  LIG2       -0.0498
     15    C       30.1570    1.8100    4.3670 C.3     2  LIG2       -0.0621
     16    C       24.6080    4.9600    4.7300 C.3     2  LIG2       -0.0358
     17    H       28.3520    1.5920    2.0590 H       2  LIG2        0.0312
     18    H       26.1920    0.7530    1.4190 H       2  LIG2        0.0309
     19    H       28.2100    3.6380    2.8520 H       2  LIG2        0.0310
     20    H       27.2130    4.8170    4.3630 H       2  LIG2        0.0331
     21    H       24.3290    1.8930    2.0110 H       2  LIG2        0.0269
     22    H       24.2570    0.6230    3.1610 H       2  LIG2        0.0269
     23    H       29.6270    3.8480    4.5750 H       2  LIG2        0.0301
     24    H       27.0640    4.3930    6.5290 H       2  LIG2        0.0269
     25    H       26.3190    2.8330    6.3780 H       2  LIG2        0.0269
     26    H       23.5380    2.7690    4.0080 H       2  LIG2        0.0293
     27    H       24.7240    2.0850    5.0050 H       2  LIG2        0.0293
     28    H       27.2450   -1.8290    2.8390 H       2  LIG2        0.0235
     29    H       28.8170   -1.1580    3.2650 H       2  LIG2        0.0235
     30    H       28.1000   -0.8010    1.7030 H       2  LIG2        0.0235
     31    H       26.1220   -0.7720    4.9630 H       2  LIG2        0.0235
     32    H       26.4180    0.9020    5.3550 H       2  LIG2        0.0235
     33    H       27.7320   -0.2410    5.4230 H       2  LIG2        0.0235
     34    H       28.4080    1.8010    6.4050 H       2  LIG2        0.0268
     35    H       29.0990    3.3630    6.7680 H       2  LIG2        0.0268
     36    H       29.7560    0.8050    4.4880 H       2  LIG2        0.0233
     37    H       30.9970    1.9050    5.0560 H       2  LIG2        0.0233
     38    H       30.5550    1.8930    3.3550 H       2  LIG2        0.0233
     39    H       24.5000    4.6930    5.7830 H       2  LIG2        0.0257
     40    H       23.6010    5.1090    4.3340 H       2  LIG2        0.0257
     41    H       25.1120    5.9280    4.6910 H       2  LIG2        0.0257
     42    H       25.9420    3.7610    2.0840 H       2  LIG2        0.2102
@<TRIPOS>BOND
     1    18     4    1
     2    30    12    1
     3    21     7    1
     4    17     2    1
     5    42     1    1
     6     4     2    1
     7     4     7    1
     8     4     3    1
     9     1     9    1
    10    12    28    1
    11    12    29    1
    12    12     3    1
    13     2     3    1
    14     2     5    1
    15    19     5    1
    16     7    22    1
    17     7    11    1
    18    38    15    1
    19     3    13    1
    20     5     6    1
    21     5     8    1
    22     9    11    1
    23     9     6    1
    24     9    16    1
    25    26    11    1
    26    11    27    1
    27    40    16    1
    28    20     6    1
    29    15    36    1
    30    15     8    1
    31    15    37    1
    32     6    10    1
    33    23     8    1
    34     8    14    1
    35    41    16    1
    36    16    39    1
    37    13    31    1
    38    13    32    1
    39    13    33    1
    40    10    14    1
    41    10    25    1
    42    10    24    1
    43    14    34    1
    44    14    35    1
@<TRIPOS>MOLECULE
11996452_9_run_19.pdb
 42 44 0 0 0
SMALL
GASTEIGER

@<TRIPOS>ATOM
      1    O       28.9080    4.4970    4.1050 O.3     2  LIG2       -0.3886
      2    C       25.9960    4.4440    3.3830 C.3     2  LIG2       -0.0289
      3    C       24.7580    5.0470    4.0630 C.3     2  LIG2       -0.0284
      4    C       26.0600    4.9340    4.8320 C.3     2  LIG2       -0.0319
      5    C       26.3450    2.9510    3.0600 C.3     2  LIG2       -0.0294
      6    C       27.7940    2.4810    3.4200 C.3     2  LIG2       -0.0090
      7    C       26.3660    3.8810    5.9190 C.3     2  LIG2       -0.0468
      8    C       25.3750    1.7850    3.4130 C.3     2  LIG2       -0.0404
      9    C       28.5820    3.1990    4.5810 C.3     2  LIG2        0.0664
     10    C       27.6690    0.9460    3.5250 C.3     2  LIG2       -0.0471
     11    C       27.8280    3.3800    5.9360 C.3     2  LIG2       -0.0237
     12    C       24.3660    6.4560    3.5750 C.3     2  LIG2       -0.0593
     13    C       23.5140    4.2640    4.5470 C.3     2  LIG2       -0.0593
     14    C       26.2490    0.6660    3.9990 C.3     2  LIG2       -0.0498
     15    C       24.4970    1.3210    2.2340 C.3     2  LIG2       -0.0621
     16    C       29.9670    2.5610    4.8520 C.3     2  LIG2       -0.0358
     17    H       26.5000    5.0870    2.6590 H       2  LIG2        0.0312
     18    H       26.5740    5.8720    5.0420 H       2  LIG2        0.0309
     19    H       26.3530    2.9580    1.9670 H       2  LIG2        0.0310
     20    H       28.4030    2.6510    2.5280 H       2  LIG2        0.0331
     21    H       26.1260    4.3060    6.8950 H       2  LIG2        0.0269
     22    H       25.7230    3.0120    5.8370 H       2  LIG2        0.0269
     23    H       24.6950    2.0500    4.2050 H       2  LIG2        0.0301
     24    H       27.8250    0.4950    2.5420 H       2  LIG2        0.0269
     25    H       28.3920    0.4830    4.1930 H       2  LIG2        0.0269
     26    H       28.4120    4.0400    6.5820 H       2  LIG2        0.0293
     27    H       27.8230    2.4200    6.4550 H       2  LIG2        0.0293
     28    H       23.8490    7.0160    4.3550 H       2  LIG2        0.0235
     29    H       23.7050    6.3980    2.7100 H       2  LIG2        0.0235
     30    H       25.2340    7.0480    3.2790 H       2  LIG2        0.0235
     31    H       22.8070    4.9350    5.0370 H       2  LIG2        0.0235
     32    H       23.7110    3.4940    5.2860 H       2  LIG2        0.0235
     33    H       22.9890    3.8110    3.7060 H       2  LIG2        0.0235
     34    H       26.2100    0.6870    5.0900 H       2  LIG2        0.0268
     35    H       25.9220   -0.3290    3.6930 H       2  LIG2        0.0268
     36    H       25.1030    0.9440    1.4090 H       2  LIG2        0.0233
     37    H       23.8900    2.1430    1.8540 H       2  LIG2        0.0233
     38    H       23.8180    0.5240    2.5370 H       2  LIG2        0.0233
     39    H       29.8830    1.6020    5.3630 H       2  LIG2        0.0257
     40    H       30.5880    3.1920    5.4900 H       2  LIG2        0.0257
     41    H       30.5220    2.3930    3.9270 H       2  LIG2        0.0257
     42    H       29.5710    4.4110    3.4170 H       2  LIG2        0.2102
@<TRIPOS>BOND
     1    36    15    1
     2    37    15    1
     3    19     5    1
     4    15    38    1
     5    15     8    1
     6    20     6    1
     7    24    10    1
     8    17     2    1
     9    29    12    1
    10     5     2    1
    11     5     8    1
    12     5     6    1
    13    30    12    1
    14     2     3    1
    15     2     4    1
    16     8    14    1
    17     8    23    1
    18    42     1    1
    19     6    10    1
    20     6     9    1
    21    10    14    1
    22    10    25    1
    23    12     3    1
    24    12    28    1
    25    35    14    1
    26    33    13    1
    27    41    16    1
    28    14    34    1
    29     3    13    1
    30     3     4    1
    31     1     9    1
    32    13    31    1
    33    13    32    1
    34     9    16    1
    35     9    11    1
    36     4    18    1
    37     4     7    1
    38    16    39    1
    39    16    40    1
    40    22     7    1
    41     7    11    1
    42     7    21    1
    43    11    27    1
    44    11    26    1
@<TRIPOS>MOLECULE
11996452_7_run_2.pdb
 42 44 0 0 0
SMALL
GASTEIGER

@<TRIPOS>ATOM
      1    O       29.5310    2.1430    3.5150 O.3     2  LIG2       -0.3886
      2    C       26.9760    3.6270    3.5700 C.3     2  LIG2       -0.0289
      3    C       26.4530    4.9850    4.0210 C.3     2  LIG2       -0.0284
      4    C       27.8460    4.5610    4.4210 C.3     2  LIG2       -0.0319
      5    C       26.4980    2.2780    4.1860 C.3     2  LIG2       -0.0294
      6    C       27.5900    1.2700    4.6900 C.3     2  LIG2       -0.0090
      7    C       28.2470    4.0600    5.8190 C.3     2  LIG2       -0.0468
      8    C       25.5880    1.4950    3.2060 C.3     2  LIG2       -0.0404
      9    C       29.0860    1.7400    4.8010 C.3     2  LIG2        0.0664
     10    C       27.3580   -0.0060    3.8550 C.3     2  LIG2       -0.0471
     11    C       29.3030    2.9340    5.7870 C.3     2  LIG2       -0.0237
     12    C       26.3390    6.0670    2.9310 C.3     2  LIG2       -0.0593
     13    C       25.3340    5.1240    5.0790 C.3     2  LIG2       -0.0593
     14    C       25.8800    0.0190    3.4770 C.3     2  LIG2       -0.0498
     15    C       24.0990    1.8670    3.3210 C.3     2  LIG2       -0.0621
     16    C       30.0250    0.5850    5.2270 C.3     2  LIG2       -0.0358
     17    H       27.2850    3.5140    2.5300 H       2  LIG2        0.0312
     18    H       28.6690    5.0880    3.9380 H       2  LIG2        0.0309
     19    H       25.8980    2.4910    5.0690 H       2  LIG2        0.0310
     20    H       27.3100    0.9960    5.7100 H       2  LIG2        0.0331
     21    H       28.6360    4.8990    6.3970 H       2  LIG2        0.0269
     22    H       27.3860    3.7030    6.3810 H       2  LIG2        0.0269
     23    H       25.9040    1.6910    2.1790 H       2  LIG2        0.0301
     24    H       27.9770   -0.0010    2.9560 H       2  LIG2        0.0269
     25    H       27.6030   -0.9110    4.4120 H       2  LIG2        0.0269
     26    H       30.2860    3.3760    5.6150 H       2  LIG2        0.0293
     27    H       29.3490    2.5400    6.8030 H       2  LIG2        0.0293
     28    H       26.4080    7.0660    3.3620 H       2  LIG2        0.0235
     29    H       25.3880    5.9930    2.4040 H       2  LIG2        0.0235
     30    H       27.1300    5.9820    2.1840 H       2  LIG2        0.0235
     31    H       25.3600    6.1150    5.5340 H       2  LIG2        0.0235
     32    H       25.3920    4.4100    5.8960 H       2  LIG2        0.0235
     33    H       24.3530    4.9990    4.6190 H       2  LIG2        0.0235
     34    H       25.2680   -0.3570    4.2990 H       2  LIG2        0.0268
     35    H       25.6820   -0.6070    2.6050 H       2  LIG2        0.0268
     36    H       23.7130    1.6740    4.3230 H       2  LIG2        0.0233
     37    H       23.4960    1.2900    2.6180 H       2  LIG2        0.0233
     38    H       23.9400    2.9230    3.1010 H       2  LIG2        0.0233
     39    H       29.7290    0.1690    6.1900 H       2  LIG2        0.0257
     40    H       31.0590    0.9210    5.3200 H       2  LIG2        0.0257
     41    H       30.0240   -0.2330    4.5060 H       2  LIG2        0.0257
     42    H       30.4330    2.4590    3.5920 H       2  LIG2        0.2102
@<TRIPOS>BOND
     1    23     8    1
     2    30    12    1
     3    29    12    1
     4    17     2    1
     5    35    14    1
     6    37    15    1
     7    12    28    1
     8    12     3    1
     9    24    10    1
    10    38    15    1
    11     8    15    1
    12     8    14    1
    13     8     5    1
    14    15    36    1
    15    14    10    1
    16    14    34    1
    17     1    42    1
    18     1     9    1
    19     2     3    1
    20     2     5    1
    21     2     4    1
    22    10    25    1
    23    10     6    1
    24    18     4    1
    25     3     4    1
    26     3    13    1
    27     5     6    1
    28     5    19    1
    29     4     7    1
    30    41    16    1
    31    33    13    1
    32     6     9    1
    33     6    20    1
    34     9    16    1
    35     9    11    1
    36    13    31    1
    37    13    32    1
    38    16    40    1
    39    16    39    1
    40    26    11    1
    41    11     7    1
    42    11    27    1
    43     7    22    1
    44     7    21    1
@<TRIPOS>MOLECULE
11996452_run_1.pdb
 42 44 0 0 0
SMALL
GASTEIGER

@<TRIPOS>ATOM
      1    O       30.3490   -0.1930    4.5620 O.3     2  LIG2       -0.3886
      2    C       26.6380    2.2690    4.6130 C.3     2  LIG2       -0.0289
      3    C       26.3500    3.7620    4.5120 C.3     2  LIG2       -0.0284
      4    C       27.6650    3.3050    5.0970 C.3     2  LIG2       -0.0319
      5    C       27.0050    1.3840    3.3860 C.3     2  LIG2       -0.0294
      6    C       28.2160    0.4160    3.6020 C.3     2  LIG2       -0.0090
      7    C       29.0170    3.3470    4.3590 C.3     2  LIG2       -0.0468
      8    C       25.8490    0.4720    2.9060 C.3     2  LIG2       -0.0404
      9    C       29.2720    0.7170    4.7290 C.3     2  LIG2        0.0664
     10    C       27.6210   -1.0160    3.5930 C.3     2  LIG2       -0.0471
     11    C       29.9310    2.1350    4.6440 C.3     2  LIG2       -0.0237
     12    C       26.2950    4.4970    3.1520 C.3     2  LIG2       -0.0593
     13    C       25.3060    4.3210    5.4970 C.3     2  LIG2       -0.0593
     14    C       26.1000   -0.8620    3.6100 C.3     2  LIG2       -0.0498
     15    C       24.4200    1.0240    3.0850 C.3     2  LIG2       -0.0621
     16    C       28.7920    0.4210    6.1780 C.3     2  LIG2       -0.0358
     17    H       26.1150    1.7020    5.3840 H       2  LIG2        0.0312
     18    H       27.7920    3.4620    6.1690 H       2  LIG2        0.0309
     19    H       27.2530    2.0340    2.5490 H       2  LIG2        0.0310
     20    H       28.7860    0.4870    2.6710 H       2  LIG2        0.0331
     21    H       28.8810    3.4230    3.2830 H       2  LIG2        0.0269
     22    H       29.5420    4.2620    4.6390 H       2  LIG2        0.0269
     23    H       25.9800    0.3060    1.8340 H       2  LIG2        0.0301
     24    H       27.9250   -1.5350    2.6830 H       2  LIG2        0.0269
     25    H       27.9590   -1.6400    4.4190 H       2  LIG2        0.0269
     26    H       30.6870    2.1410    3.8540 H       2  LIG2        0.0293
     27    H       30.4800    2.3340    5.5660 H       2  LIG2        0.0293
     28    H       26.4610    5.5670    3.2900 H       2  LIG2        0.0235
     29    H       25.3180    4.3740    2.6880 H       2  LIG2        0.0235
     30    H       27.0330    4.1640    2.4270 H       2  LIG2        0.0235
     31    H       25.4690    5.3820    5.6810 H       2  LIG2        0.0235
     32    H       25.3410    3.8150    6.4630 H       2  LIG2        0.0235
     33    H       24.2960    4.1980    5.1050 H       2  LIG2        0.0235
     34    H       25.7310   -0.8310    4.6360 H       2  LIG2        0.0268
     35    H       25.6070   -1.6930    3.1050 H       2  LIG2        0.0268
     36    H       24.1550    1.1500    4.1360 H       2  LIG2        0.0233
     37    H       23.6870    0.3490    2.6430 H       2  LIG2        0.0233
     38    H       24.3100    1.9920    2.5950 H       2  LIG2        0.0233
     39    H       27.9810    1.0630    6.5070 H       2  LIG2        0.0257
     40    H       29.5980    0.5610    6.9010 H       2  LIG2        0.0257
     41    H       28.4460   -0.6040    6.3020 H       2  LIG2        0.0257
     42    H       30.9250    0.1430    3.8710 H       2  LIG2        0.2102
@<TRIPOS>BOND
     1    23     8    1
     2    30    12    1
     3    19     5    1
     4    38    15    1
     5    37    15    1
     6    20     6    1
     7    24    10    1
     8    29    12    1
     9     8    15    1
    10     8     5    1
    11     8    14    1
    12    15    36    1
    13    35    14    1
    14    12    28    1
    15    12     3    1
    16    21     7    1
    17     5     6    1
    18     5     2    1
    19    10     6    1
    20    10    14    1
    21    10    25    1
    22     6     9    1
    23    14    34    1
    24    26    11    1
    25    42     1    1
    26     7    22    1
    27     7    11    1
    28     7     4    1
    29     3     2    1
    30     3     4    1
    31     3    13    1
    32     1     9    1
    33     2     4    1
    34     2    17    1
    35    11     9    1
    36    11    27    1
    37     9    16    1
    38     4    18    1
    39    33    13    1
    40    13    31    1
    41    13    32    1
    42    16    41    1
    43    16    39    1
    44    16    40    1
