@<TRIPOS>MOLECULE
11996452_7_run_2.pdb
 42 44 0 0 0
SMALL
GASTEIGER

@<TRIPOS>ATOM
      1    O       29.5310    2.1430    3.5150 O.3     2  LIG2       -0.3886
      2    C       26.9760    3.6270    3.5700 C.3     2  LIG2       -0.0289
      3    C       26.4530    4.9850    4.0210 C.3     2  LIG2       -0.0284
      4    C       27.8460    4.5610    4.4210 C.3     2  LIG2       -0.0319
      5    C       26.4980    2.2780    4.1860 C.3     2  LIG2       -0.0294
      6    C       27.5900    1.2700    4.6900 C.3     2  LIG2       -0.0090
      7    C       28.2470    4.0600    5.8190 C.3     2  LIG2       -0.0468
      8    C       25.5880    1.4950    3.2060 C.3     2  LIG2       -0.0404
      9    C       29.0860    1.7400    4.8010 C.3     2  LIG2        0.0664
     10    C       27.3580   -0.0060    3.8550 C.3     2  LIG2       -0.0471
     11    C       29.3030    2.9340    5.7870 C.3     2  LIG2       -0.0237
     12    C       26.3390    6.0670    2.9310 C.3     2  LIG2       -0.0593
     13    C       25.3340    5.1240    5.0790 C.3     2  LIG2       -0.0593
     14    C       25.8800    0.0190    3.4770 C.3     2  LIG2       -0.0498
     15    C       24.0990    1.8670    3.3210 C.3     2  LIG2       -0.0621
     16    C       30.0250    0.5850    5.2270 C.3     2  LIG2       -0.0358
     17    H       27.2850    3.5140    2.5300 H       2  LIG2        0.0312
     18    H       28.6690    5.0880    3.9380 H       2  LIG2        0.0309
     19    H       25.8980    2.4910    5.0690 H       2  LIG2        0.0310
     20    H       27.3100    0.9960    5.7100 H       2  LIG2        0.0331
     21    H       28.6360    4.8990    6.3970 H       2  LIG2        0.0269
     22    H       27.3860    3.7030    6.3810 H       2  LIG2        0.0269
     23    H       25.9040    1.6910    2.1790 H       2  LIG2        0.0301
     24    H       27.9770   -0.0010    2.9560 H       2  LIG2        0.0269
     25    H       27.6030   -0.9110    4.4120 H       2  LIG2        0.0269
     26    H       30.2860    3.3760    5.6150 H       2  LIG2        0.0293
     27    H       29.3490    2.5400    6.8030 H       2  LIG2        0.0293
     28    H       26.4080    7.0660    3.3620 H       2  LIG2        0.0235
     29    H       25.3880    5.9930    2.4040 H       2  LIG2        0.0235
     30    H       27.1300    5.9820    2.1840 H       2  LIG2        0.0235
     31    H       25.3600    6.1150    5.5340 H       2  LIG2        0.0235
     32    H       25.3920    4.4100    5.8960 H       2  LIG2        0.0235
     33    H       24.3530    4.9990    4.6190 H       2  LIG2        0.0235
     34    H       25.2680   -0.3570    4.2990 H       2  LIG2        0.0268
     35    H       25.6820   -0.6070    2.6050 H       2  LIG2        0.0268
     36    H       23.7130    1.6740    4.3230 H       2  LIG2        0.0233
     37    H       23.4960    1.2900    2.6180 H       2  LIG2        0.0233
     38    H       23.9400    2.9230    3.1010 H       2  LIG2        0.0233
     39    H       29.7290    0.1690    6.1900 H       2  LIG2        0.0257
     40    H       31.0590    0.9210    5.3200 H       2  LIG2        0.0257
     41    H       30.0240   -0.2330    4.5060 H       2  LIG2        0.0257
     42    H       30.4330    2.4590    3.5920 H       2  LIG2        0.2102
@<TRIPOS>BOND
     1    23     8    1
     2    30    12    1
     3    29    12    1
     4    17     2    1
     5    35    14    1
     6    37    15    1
     7    12    28    1
     8    12     3    1
     9    24    10    1
    10    38    15    1
    11     8    15    1
    12     8    14    1
    13     8     5    1
    14    15    36    1
    15    14    10    1
    16    14    34    1
    17     1    42    1
    18     1     9    1
    19     2     3    1
    20     2     5    1
    21     2     4    1
    22    10    25    1
    23    10     6    1
    24    18     4    1
    25     3     4    1
    26     3    13    1
    27     5     6    1
    28     5    19    1
    29     4     7    1
    30    41    16    1
    31    33    13    1
    32     6     9    1
    33     6    20    1
    34     9    16    1
    35     9    11    1
    36    13    31    1
    37    13    32    1
    38    16    40    1
    39    16    39    1
    40    26    11    1
    41    11     7    1
    42    11    27    1
    43     7    22    1
    44     7    21    1
@<TRIPOS>MOLECULE
11996452_7_run_5.pdb
 42 44 0 0 0
SMALL
GASTEIGER

@<TRIPOS>ATOM
      1    O       25.5130    0.0740    4.6390 O.3     2  LIG2       -0.3886
      2    C       26.2270    2.9400    4.5520 C.3     2  LIG2       -0.0289
      3    C       25.8410    4.1910    3.7730 C.3     2  LIG2       -0.0284
      4    C       25.3560    2.8440    3.2930 C.3     2  LIG2       -0.0319
      5    C       27.6580    2.3230    4.5250 C.3     2  LIG2       -0.0294
      6    C       27.7940    0.7930    4.2000 C.3     2  LIG2       -0.0090
      7    C       25.9400    2.0720    2.0970 C.3     2  LIG2       -0.0468
      8    C       28.4080    2.5630    5.8590 C.3     2  LIG2       -0.0404
      9    C       26.5450    0.0000    3.6680 C.3     2  LIG2        0.0664
     10    C       28.4790    0.1900    5.4430 C.3     2  LIG2       -0.0471
     11    C       25.9800    0.5440    2.3150 C.3     2  LIG2       -0.0237
     12    C       24.7990    5.1110    4.4360 C.3     2  LIG2       -0.0593
     13    C       26.8720    4.9990    2.9520 C.3     2  LIG2       -0.0593
     14    C       29.2900    1.3290    6.0530 C.3     2  LIG2       -0.0498
     15    C       29.1800    3.8930    5.8980 C.3     2  LIG2       -0.0621
     16    C       26.8490   -1.5080    3.4920 C.3     2  LIG2       -0.0358
     17    H       25.7150    2.7420    5.4950 H       2  LIG2        0.0312
     18    H       24.2910    2.6430    3.4120 H       2  LIG2        0.0309
     19    H       28.2360    2.8160    3.7460 H       2  LIG2        0.0310
     20    H       28.5350    0.7110    3.4010 H       2  LIG2        0.0331
     21    H       25.3460    2.2920    1.2100 H       2  LIG2        0.0269
     22    H       26.9470    2.4080    1.8550 H       2  LIG2        0.0269
     23    H       27.6930    2.5660    6.6850 H       2  LIG2        0.0301
     24    H       27.7390   -0.1700    6.1590 H       2  LIG2        0.0269
     25    H       29.1210   -0.6540    5.1890 H       2  LIG2        0.0269
     26    H       24.9810    0.1370    2.1460 H       2  LIG2        0.0293
     27    H       26.5850    0.1430    1.5000 H       2  LIG2        0.0293
     28    H       24.2540    5.6890    3.6900 H       2  LIG2        0.0235
     29    H       25.2770    5.8120    5.1210 H       2  LIG2        0.0235
     30    H       24.0620    4.5490    5.0120 H       2  LIG2        0.0235
     31    H       26.3700    5.6000    2.1940 H       2  LIG2        0.0235
     32    H       27.6070    4.3940    2.4270 H       2  LIG2        0.0235
     33    H       27.4270    5.6810    3.5980 H       2  LIG2        0.0235
     34    H       30.2420    1.4430    5.5310 H       2  LIG2        0.0268
     35    H       29.5110    1.1420    7.1050 H       2  LIG2        0.0268
     36    H       29.9300    3.9460    5.1070 H       2  LIG2        0.0233
     37    H       29.6960    4.0190    6.8510 H       2  LIG2        0.0233
     38    H       28.5070    4.7420    5.7750 H       2  LIG2        0.0233
     39    H       27.6730   -1.6670    2.7960 H       2  LIG2        0.0257
     40    H       25.9850   -2.0510    3.1050 H       2  LIG2        0.0257
     41    H       27.1230   -1.9850    4.4340 H       2  LIG2        0.0257
     42    H       25.8440   -0.2940    5.4610 H       2  LIG2        0.2102
@<TRIPOS>BOND
     1    21     7    1
     2    27    11    1
     3    22     7    1
     4     7    11    1
     5     7     4    1
     6    26    11    1
     7    31    13    1
     8    11     9    1
     9    32    13    1
    10    39    16    1
    11    13    33    1
    12    13     3    1
    13    40    16    1
    14     4    18    1
    15     4     3    1
    16     4     2    1
    17    20     6    1
    18    16     9    1
    19    16    41    1
    20     9     6    1
    21     9     1    1
    22    28    12    1
    23    19     5    1
    24     3    12    1
    25     3     2    1
    26     6     5    1
    27     6    10    1
    28    12    30    1
    29    12    29    1
    30     5     2    1
    31     5     8    1
    32     2    17    1
    33     1    42    1
    34    36    15    1
    35    25    10    1
    36    10    14    1
    37    10    24    1
    38    34    14    1
    39    38    15    1
    40     8    15    1
    41     8    14    1
    42     8    23    1
    43    15    37    1
    44    14    35    1
@<TRIPOS>MOLECULE
11996452_7_run_3.pdb
 42 44 0 0 0
SMALL
GASTEIGER

@<TRIPOS>ATOM
      1    O       25.9790    4.3930    6.2230 O.3     2  LIG2       -0.3886
      2    C       27.3890    2.0760    5.0500 C.3     2  LIG2       -0.0289
      3    C       28.8200    1.6200    4.7920 C.3     2  LIG2       -0.0284
      4    C       28.5660    3.0440    5.2270 C.3     2  LIG2       -0.0319
      5    C       26.3590    2.3470    3.9130 C.3     2  LIG2       -0.0294
      6    C       25.6010    3.7210    3.9170 C.3     2  LIG2       -0.0090
      7    C       28.6090    4.2690    4.2980 C.3     2  LIG2       -0.0468
      8    C       25.2760    1.2410    3.8500 C.3     2  LIG2       -0.0404
      9    C       26.0740    4.8640    4.8870 C.3     2  LIG2        0.0664
     10    C       24.1100    3.3440    4.0190 C.3     2  LIG2       -0.0471
     11    C       27.5450    5.3340    4.6410 C.3     2  LIG2       -0.0237
     12    C       29.4290    0.6690    5.8390 C.3     2  LIG2       -0.0593
     13    C       29.3390    1.3080    3.3700 C.3     2  LIG2       -0.0593
     14    C       23.9990    1.9530    3.4000 C.3     2  LIG2       -0.0498
     15    C       25.6680    0.0470    2.9620 C.3     2  LIG2       -0.0621
     16    C       25.1520    6.1050    4.8130 C.3     2  LIG2       -0.0358
     17    H       26.9030    1.7520    5.9720 H       2  LIG2        0.0312
     18    H       28.8780    3.3020    6.2390 H       2  LIG2        0.0309
     19    H       26.8820    2.3300    2.9580 H       2  LIG2        0.0310
     20    H       25.7190    4.1430    2.9160 H       2  LIG2        0.0331
     21    H       29.5990    4.7220    4.3550 H       2  LIG2        0.0269
     22    H       28.4840    3.9870    3.2550 H       2  LIG2        0.0269
     23    H       25.0820    0.8620    4.8550 H       2  LIG2        0.0301
     24    H       23.7840    3.3190    5.0600 H       2  LIG2        0.0269
     25    H       23.4690    4.0550    3.4960 H       2  LIG2        0.0269
     26    H       27.8910    5.9160    5.4980 H       2  LIG2        0.0293
     27    H       27.5490    6.0380    3.8080 H       2  LIG2        0.0293
     28    H       30.5170    0.7480    5.8550 H       2  LIG2        0.0235
     29    H       29.1710   -0.3680    5.6230 H       2  LIG2        0.0235
     30    H       29.0750    0.8870    6.8480 H       2  LIG2        0.0235
     31    H       30.4270    1.3690    3.3390 H       2  LIG2        0.0235
     32    H       28.9720    1.9780    2.5970 H       2  LIG2        0.0235
     33    H       29.0580    0.2970    3.0720 H       2  LIG2        0.0235
     34    H       23.9510    2.0210    2.3120 H       2  LIG2        0.0268
     35    H       23.0990    1.4370    3.7380 H       2  LIG2        0.0268
     36    H       25.8560    0.3560    1.9320 H       2  LIG2        0.0233
     37    H       24.8770   -0.7040    2.9420 H       2  LIG2        0.0233
     38    H       26.5720   -0.4370    3.3330 H       2  LIG2        0.0233
     39    H       25.1170    6.5120    3.8030 H       2  LIG2        0.0257
     40    H       25.4950    6.9020    5.4750 H       2  LIG2        0.0257
     41    H       24.1260    5.8740    5.1050 H       2  LIG2        0.0257
     42    H       26.3490    5.0590    6.8060 H       2  LIG2        0.2102
@<TRIPOS>BOND
     1    36    15    1
     2    34    14    1
     3    32    13    1
     4    20     6    1
     5    37    15    1
     6    19     5    1
     7    15    38    1
     8    15     8    1
     9    33    13    1
    10    22     7    1
    11    31    13    1
    12    13     3    1
    13    14    35    1
    14    14     8    1
    15    14    10    1
    16    25    10    1
    17    39    16    1
    18    27    11    1
    19     8     5    1
    20     8    23    1
    21     5     6    1
    22     5     2    1
    23     6    10    1
    24     6     9    1
    25    10    24    1
    26     7    21    1
    27     7    11    1
    28     7     4    1
    29    11     9    1
    30    11    26    1
    31     3     2    1
    32     3     4    1
    33     3    12    1
    34    16     9    1
    35    16    41    1
    36    16    40    1
    37     9     1    1
    38     2     4    1
    39     2    17    1
    40     4    18    1
    41    29    12    1
    42    12    28    1
    43    12    30    1
    44     1    42    1
@<TRIPOS>MOLECULE
11996452_7_run_2.pdb
 42 44 0 0 0
SMALL
GASTEIGER

@<TRIPOS>ATOM
      1    O       25.3010    3.1170    2.3070 O.3     2  LIG2       -0.3886
      2    C       27.6360    1.5800    3.2660 C.3     2  LIG2       -0.0289
      3    C       28.0620    0.1260    3.4180 C.3     2  LIG2       -0.0284
      4    C       26.6250    0.4420    3.0800 C.3     2  LIG2       -0.0319
      5    C       27.4600    2.5510    4.4720 C.3     2  LIG2       -0.0294
      6    C       26.1110    3.3460    4.5880 C.3     2  LIG2       -0.0090
      7    C       25.4520    0.3800    4.0740 C.3     2  LIG2       -0.0468
      8    C       28.5990    3.5990    4.5310 C.3     2  LIG2       -0.0404
      9    C       24.9020    2.9590    3.6600 C.3     2  LIG2        0.0664
     10    C       26.5270    4.8300    4.5460 C.3     2  LIG2       -0.0471
     11    C       24.4020    1.4900    3.8510 C.3     2  LIG2       -0.0237
     12    C       28.9340   -0.4490    2.2870 C.3     2  LIG2       -0.0593
     13    C       28.4370   -0.4820    4.7900 C.3     2  LIG2       -0.0593
     14    C       27.9530    4.8670    5.0900 C.3     2  LIG2       -0.0498
     15    C       29.8290    3.1250    5.3260 C.3     2  LIG2       -0.0621
     16    C       23.6950    3.9090    3.8550 C.3     2  LIG2       -0.0358
     17    H       27.9220    2.1090    2.3550 H       2  LIG2        0.0312
     18    H       26.3010    0.1950    2.0690 H       2  LIG2        0.0309
     19    H       27.5140    1.9760    5.3940 H       2  LIG2        0.0310
     20    H       25.7420    3.1830    5.6040 H       2  LIG2        0.0331
     21    H       24.9670   -0.5930    3.9890 H       2  LIG2        0.0269
     22    H       25.7950    0.4380    5.1050 H       2  LIG2        0.0269
     23    H       28.9280    3.8390    3.5170 H       2  LIG2        0.0301
     24    H       26.5040    5.2130    3.5250 H       2  LIG2        0.0269
     25    H       25.8660    5.4590    5.1440 H       2  LIG2        0.0269
     26    H       23.7630    1.2090    3.0120 H       2  LIG2        0.0293
     27    H       23.7460    1.4580    4.7230 H       2  LIG2        0.0293
     28    H       28.8210   -1.5310    2.2160 H       2  LIG2        0.0235
     29    H       29.9890   -0.2320    2.4570 H       2  LIG2        0.0235
     30    H       28.6720   -0.0330    1.3130 H       2  LIG2        0.0235
     31    H       28.3450   -1.5670    4.7650 H       2  LIG2        0.0235
     32    H       27.8230   -0.1400    5.6190 H       2  LIG2        0.0235
     33    H       29.4710   -0.2450    5.0440 H       2  LIG2        0.0235
     34    H       27.9460    4.8560    6.1810 H       2  LIG2        0.0268
     35    H       28.4760    5.7710    4.7720 H       2  LIG2        0.0268
     36    H       29.5720    2.8870    6.3600 H       2  LIG2        0.0233
     37    H       30.6030    3.8930    5.3460 H       2  LIG2        0.0233
     38    H       30.2640    2.2310    4.8790 H       2  LIG2        0.0233
     39    H       23.3460    3.8980    4.8880 H       2  LIG2        0.0257
     40    H       22.8530    3.6260    3.2230 H       2  LIG2        0.0257
     41    H       23.9410    4.9430    3.6070 H       2  LIG2        0.0257
     42    H       25.6140    4.0150    2.1860 H       2  LIG2        0.2102
@<TRIPOS>BOND
     1    30    12    1
     2    18     4    1
     3    42     1    1
     4    28    12    1
     5    12    29    1
     6    12     3    1
     7     1     9    1
     8    17     2    1
     9    26    11    1
    10     4     2    1
    11     4     3    1
    12     4     7    1
    13    40    16    1
    14     2     3    1
    15     2     5    1
    16     3    13    1
    17    23     8    1
    18    24    10    1
    19    41    16    1
    20     9    11    1
    21     9    16    1
    22     9     6    1
    23    11     7    1
    24    11    27    1
    25    16    39    1
    26    21     7    1
    27     7    22    1
    28     5     8    1
    29     5     6    1
    30     5    19    1
    31     8    14    1
    32     8    15    1
    33    10     6    1
    34    10    14    1
    35    10    25    1
    36     6    20    1
    37    31    13    1
    38    35    14    1
    39    13    33    1
    40    13    32    1
    41    38    15    1
    42    14    34    1
    43    15    37    1
    44    15    36    1
@<TRIPOS>MOLECULE
11996452_7_run_22.pdb
 42 44 0 0 0
SMALL
GASTEIGER

@<TRIPOS>ATOM
      1    O       27.9210    0.4600    2.3590 O.3     2  LIG2       -0.3886
      2    C       27.1960    3.1290    3.3990 C.3     2  LIG2       -0.0289
      3    C       27.8930    4.3930    3.8880 C.3     2  LIG2       -0.0284
      4    C       28.7070    3.1420    3.6610 C.3     2  LIG2       -0.0319
      5    C       26.2850    2.2490    4.3060 C.3     2  LIG2       -0.0294
      6    C       26.5760    0.7080    4.3700 C.3     2  LIG2       -0.0090
      7    C       29.2320    2.2180    4.7730 C.3     2  LIG2       -0.0468
      8    C       24.7890    2.4030    3.9320 C.3     2  LIG2       -0.0404
      9    C       27.9030    0.1450    3.7430 C.3     2  LIG2        0.0664
     10    C       25.2770    0.0440    3.8720 C.3     2  LIG2       -0.0471
     11    C       29.2050    0.7230    4.3900 C.3     2  LIG2       -0.0237
     12    C       28.0500    5.5250    2.8570 C.3     2  LIG2       -0.0593
     13    C       27.6790    4.9490    5.3150 C.3     2  LIG2       -0.0593
     14    C       24.1630    1.0340    4.2010 C.3     2  LIG2       -0.0498
     15    C       24.0900    3.5620    4.6650 C.3     2  LIG2       -0.0621
     16    C       27.9700   -1.4000    3.8220 C.3     2  LIG2       -0.0358
     17    H       26.9000    3.0770    2.3500 H       2  LIG2        0.0312
     18    H       29.3830    3.1550    2.8050 H       2  LIG2        0.0309
     19    H       26.3880    2.5860    5.3360 H       2  LIG2        0.0310
     20    H       26.6400    0.4490    5.4290 H       2  LIG2        0.0331
     21    H       30.2540    2.5050    5.0190 H       2  LIG2        0.0269
     22    H       28.6710    2.3430    5.6970 H       2  LIG2        0.0269
     23    H       24.6970    2.5820    2.8590 H       2  LIG2        0.0301
     24    H       25.3170   -0.1340    2.7970 H       2  LIG2        0.0269
     25    H       25.0970   -0.9180    4.3540 H       2  LIG2        0.0269
     26    H       30.0600    0.5070    3.7460 H       2  LIG2        0.0293
     27    H       29.4060    0.1760    5.3120 H       2  LIG2        0.0293
     28    H       28.9020    6.1610    3.0990 H       2  LIG2        0.0235
     29    H       27.1600    6.1540    2.8270 H       2  LIG2        0.0235
     30    H       28.2090    5.1420    1.8470 H       2  LIG2        0.0235
     31    H       28.5070    5.5990    5.5990 H       2  LIG2        0.0235
     32    H       27.6040    4.1910    6.0900 H       2  LIG2        0.0235
     33    H       26.7650    5.5420    5.3630 H       2  LIG2        0.0235
     34    H       23.8620    0.9390    5.2460 H       2  LIG2        0.0268
     35    H       23.2800    0.8580    3.5850 H       2  LIG2        0.0268
     36    H       24.1270    3.4330    5.7490 H       2  LIG2        0.0233
     37    H       23.0400    3.6310    4.3770 H       2  LIG2        0.0233
     38    H       24.5600    4.5170    4.4280 H       2  LIG2        0.0233
     39    H       27.9100   -1.7470    4.8540 H       2  LIG2        0.0257
     40    H       28.9010   -1.7850    3.4020 H       2  LIG2        0.0257
     41    H       27.1570   -1.8760    3.2720 H       2  LIG2        0.0257
     42    H       28.7800    0.2230    2.0050 H       2  LIG2        0.2102
@<TRIPOS>BOND
     1    30    12    1
     2    42     1    1
     3    17     2    1
     4     1     9    1
     5    24    10    1
     6    18     4    1
     7    29    12    1
     8    12    28    1
     9    12     3    1
    10    23     8    1
    11    41    16    1
    12     2     4    1
    13     2     3    1
    14     2     5    1
    15    40    16    1
    16    35    14    1
    17     4     3    1
    18     4     7    1
    19     9    16    1
    20     9     6    1
    21     9    11    1
    22    26    11    1
    23    16    39    1
    24    10    14    1
    25    10    25    1
    26    10     6    1
    27     3    13    1
    28     8    14    1
    29     8     5    1
    30     8    15    1
    31    14    34    1
    32     5     6    1
    33     5    19    1
    34     6    20    1
    35    37    15    1
    36    11     7    1
    37    11    27    1
    38    38    15    1
    39    15    36    1
    40     7    21    1
    41     7    22    1
    42    13    33    1
    43    13    31    1
    44    13    32    1
@<TRIPOS>MOLECULE
11996452_7_run_5.pdb
 42 44 0 0 0
SMALL
GASTEIGER

@<TRIPOS>ATOM
      1    O       27.4680    2.7410    6.4860 O.3     2  LIG2       -0.3886
      2    C       27.0940    0.5730    4.5120 C.3     2  LIG2       -0.0289
      3    C       27.8780   -0.6030    3.9450 C.3     2  LIG2       -0.0284
      4    C       28.5910    0.4120    4.8060 C.3     2  LIG2       -0.0319
      5    C       26.6250    1.7840    3.6500 C.3     2  LIG2       -0.0294
      6    C       26.9730    3.2280    4.1560 C.3     2  LIG2       -0.0090
      7    C       29.5290    1.5100    4.2780 C.3     2  LIG2       -0.0468
      8    C       25.0940    1.7540    3.4120 C.3     2  LIG2       -0.0404
      9    C       27.9850    3.4090    5.3450 C.3     2  LIG2        0.0664
     10    C       25.6070    3.9180    4.3400 C.3     2  LIG2       -0.0471
     11    C       29.4130    2.8400    5.0540 C.3     2  LIG2       -0.0237
     12    C       27.5930   -1.9780    4.5780 C.3     2  LIG2       -0.0593
     13    C       28.1990   -0.7270    2.4370 C.3     2  LIG2       -0.0593
     14    C       24.6650    3.2210    3.3630 C.3     2  LIG2       -0.0498
     15    C       24.6820    0.9430    2.1700 C.3     2  LIG2       -0.0621
     16    C       28.1320    4.8930    5.7600 C.3     2  LIG2       -0.0358
     17    H       26.4260    0.3890    5.3550 H       2  LIG2        0.0312
     18    H       28.8920    0.0770    5.7980 H       2  LIG2        0.0309
     19    H       27.0960    1.7190    2.6710 H       2  LIG2        0.0310
     20    H       27.4410    3.7460    3.3150 H       2  LIG2        0.0331
     21    H       30.5570    1.1540    4.3320 H       2  LIG2        0.0269
     22    H       29.3540    1.7160    3.2230 H       2  LIG2        0.0269
     23    H       24.5970    1.3140    4.2790 H       2  LIG2        0.0301
     24    H       25.2450    3.7980    5.3620 H       2  LIG2        0.0269
     25    H       25.6570    4.9890    4.1370 H       2  LIG2        0.0269
     26    H       29.9690    2.7520    5.9900 H       2  LIG2        0.0293
     27    H       29.9660    3.5760    4.4690 H       2  LIG2        0.0293
     28    H       28.4510   -2.6430    4.4720 H       2  LIG2        0.0235
     29    H       26.7360   -2.4570    4.1050 H       2  LIG2        0.0235
     30    H       27.3740   -1.9020    5.6440 H       2  LIG2        0.0235
     31    H       29.0490   -1.3920    2.2810 H       2  LIG2        0.0235
     32    H       28.4480    0.2110    1.9490 H       2  LIG2        0.0235
     33    H       27.3490   -1.1480    1.8970 H       2  LIG2        0.0235
     34    H       24.7840    3.6310    2.3580 H       2  LIG2        0.0268
     35    H       23.6210    3.3550    3.6520 H       2  LIG2        0.0268
     36    H       25.1300    1.3460    1.2600 H       2  LIG2        0.0233
     37    H       23.5990    0.9530    2.0370 H       2  LIG2        0.0233
     38    H       24.9930   -0.0980    2.2600 H       2  LIG2        0.0233
     39    H       28.4780    5.5040    4.9260 H       2  LIG2        0.0257
     40    H       28.8490    5.0150    6.5740 H       2  LIG2        0.0257
     41    H       27.1890    5.3190    6.1050 H       2  LIG2        0.0257
     42    H       26.6580    3.1800    6.7520 H       2  LIG2        0.2102
@<TRIPOS>BOND
     1    36    15    1
     2    33    13    1
     3    32    13    1
     4    37    15    1
     5    15    38    1
     6    15     8    1
     7    31    13    1
     8    34    14    1
     9    13     3    1
    10    19     5    1
    11    22     7    1
    12    20     6    1
    13    14     8    1
    14    14    35    1
    15    14    10    1
    16     8     5    1
    17     8    23    1
    18     5     6    1
    19     5     2    1
    20     3     2    1
    21     3    12    1
    22     3     4    1
    23    29    12    1
    24    25    10    1
    25     6    10    1
    26     6     9    1
    27     7    21    1
    28     7     4    1
    29     7    11    1
    30    10    24    1
    31    27    11    1
    32    28    12    1
    33     2     4    1
    34     2    17    1
    35    12    30    1
    36     4    18    1
    37    39    16    1
    38    11     9    1
    39    11    26    1
    40     9    16    1
    41     9     1    1
    42    16    41    1
    43    16    40    1
    44     1    42    1
@<TRIPOS>MOLECULE
11996452_7_run_20.pdb
 42 44 0 0 0
SMALL
GASTEIGER

@<TRIPOS>ATOM
      1    O       28.5250    4.0090    3.8710 O.3     2  LIG2       -0.3886
      2    C       26.9380    1.7100    2.9060 C.3     2  LIG2       -0.0289
      3    C       25.5290    1.4260    2.4010 C.3     2  LIG2       -0.0284
      4    C       25.8330    2.7670    3.0240 C.3     2  LIG2       -0.0319
      5    C       27.5220    1.0850    4.2090 C.3     2  LIG2       -0.0294
      6    C       28.1630    2.0510    5.2670 C.3     2  LIG2       -0.0090
      7    C       25.4210    3.1910    4.4450 C.3     2  LIG2       -0.0468
      8    C       28.5840    0.0020    3.8950 C.3     2  LIG2       -0.0404
      9    C       27.9720    3.6040    5.1130 C.3     2  LIG2        0.0664
     10    C       29.6240    1.5750    5.3950 C.3     2  LIG2       -0.0471
     11    C       26.4780    4.0650    5.1530 C.3     2  LIG2       -0.0237
     12    C       25.3500    1.3930    0.8710 C.3     2  LIG2       -0.0593
     13    C       24.5900    0.4200    3.1050 C.3     2  LIG2       -0.0593
     14    C       29.6020    0.0930    5.0330 C.3     2  LIG2       -0.0498
     15    C       27.9880   -1.4040    3.7040 C.3     2  LIG2       -0.0621
     16    C       28.7500    4.3930    6.1950 C.3     2  LIG2       -0.0358
     17    H       27.7160    1.9230    2.1710 H       2  LIG2        0.0312
     18    H       25.8560    3.6210    2.3470 H       2  LIG2        0.0309
     19    H       26.7170    0.5890    4.7490 H       2  LIG2        0.0310
     20    H       27.7010    1.8100    6.2270 H       2  LIG2        0.0331
     21    H       24.4810    3.7400    4.3910 H       2  LIG2        0.0269
     22    H       25.2120    2.3300    5.0770 H       2  LIG2        0.0269
     23    H       29.1170    0.2670    2.9790 H       2  LIG2        0.0301
     24    H       30.2730    2.1210    4.7090 H       2  LIG2        0.0269
     25    H       30.0170    1.7240    6.4020 H       2  LIG2        0.0269
     26    H       26.4010    5.0870    4.7780 H       2  LIG2        0.0293
     27    H       26.1620    4.1270    6.1960 H       2  LIG2        0.0293
     28    H       24.3250    1.6390    0.5920 H       2  LIG2        0.0235
     29    H       25.5790    0.4050    0.4710 H       2  LIG2        0.0235
     30    H       26.0030    2.1060    0.3650 H       2  LIG2        0.0235
     31    H       23.5510    0.6230    2.8480 H       2  LIG2        0.0235
     32    H       24.6470    0.4320    4.1900 H       2  LIG2        0.0235
     33    H       24.8140   -0.6000    2.7880 H       2  LIG2        0.0235
     34    H       29.2860   -0.5060    5.8890 H       2  LIG2        0.0268
     35    H       30.5900   -0.2580    4.7300 H       2  LIG2        0.0268
     36    H       27.4560   -1.7410    4.5960 H       2  LIG2        0.0233
     37    H       28.7690   -2.1350    3.4900 H       2  LIG2        0.0233
     38    H       27.2840   -1.4230    2.8710 H       2  LIG2        0.0233
     39    H       28.4290    4.1100    7.1980 H       2  LIG2        0.0257
     40    H       28.5990    5.4690    6.0960 H       2  LIG2        0.0257
     41    H       29.8250    4.2190    6.1370 H       2  LIG2        0.0257
     42    H       29.4790    3.9230    3.9220 H       2  LIG2        0.2102
@<TRIPOS>BOND
     1    30    12    1
     2    29    12    1
     3    28    12    1
     4    12     3    1
     5    17     2    1
     6    18     4    1
     7     3     2    1
     8     3     4    1
     9     3    13    1
    10    33    13    1
    11    31    13    1
    12    38    15    1
    13     2     4    1
    14     2     5    1
    15    23     8    1
    16     4     7    1
    17    13    32    1
    18    37    15    1
    19    15     8    1
    20    15    36    1
    21     1    42    1
    22     1     9    1
    23     8     5    1
    24     8    14    1
    25     5    19    1
    26     5     6    1
    27    21     7    1
    28     7    22    1
    29     7    11    1
    30    24    10    1
    31    35    14    1
    32    26    11    1
    33    14    10    1
    34    14    34    1
    35     9    11    1
    36     9     6    1
    37     9    16    1
    38    11    27    1
    39     6    10    1
    40     6    20    1
    41    10    25    1
    42    40    16    1
    43    41    16    1
    44    16    39    1
@<TRIPOS>MOLECULE
11996452_7_run_18.pdb
 42 44 0 0 0
SMALL
GASTEIGER

@<TRIPOS>ATOM
      1    O       26.6860    5.4120    2.8140 O.3     2  LIG2       -0.3886
      2    C       26.8580    2.4940    3.2510 C.3     2  LIG2       -0.0289
      3    C       26.0040    1.2530    3.0250 C.3     2  LIG2       -0.0284
      4    C       25.3830    2.6180    2.8480 C.3     2  LIG2       -0.0319
      5    C       27.2940    2.9870    4.6630 C.3     2  LIG2       -0.0294
      6    C       27.0210    4.4870    5.0370 C.3     2  LIG2       -0.0090
      7    C       24.4370    3.2930    3.8560 C.3     2  LIG2       -0.0468
      8    C       28.8010    2.7340    4.9140 C.3     2  LIG2       -0.0404
      9    C       26.1050    5.3620    4.1080 C.3     2  LIG2        0.0664
     10    C       28.4150    5.0750    5.3340 C.3     2  LIG2       -0.0471
     11    C       24.6450    4.8190    3.9640 C.3     2  LIG2       -0.0237
     12    C       26.2980    0.4500    1.7440 C.3     2  LIG2       -0.0593
     13    C       25.5700    0.3310    4.1880 C.3     2  LIG2       -0.0593
     14    C       29.2640    3.8940    5.7960 C.3     2  LIG2       -0.0498
     15    C       29.1000    1.3450    5.5070 C.3     2  LIG2       -0.0621
     16    C       26.0270    6.8320    4.5890 C.3     2  LIG2       -0.0358
     17    H       27.5810    2.7690    2.4810 H       2  LIG2        0.0312
     18    H       25.1470    2.9120    1.8250 H       2  LIG2        0.0309
     19    H       26.7500    2.4180    5.4150 H       2  LIG2        0.0310
     20    H       26.5060    4.4760    6.0010 H       2  LIG2        0.0331
     21    H       23.4070    3.0920    3.5640 H       2  LIG2        0.0269
     22    H       24.5390    2.8640    4.8520 H       2  LIG2        0.0269
     23    H       29.3490    2.8210    3.9740 H       2  LIG2        0.0301
     24    H       28.8480    5.5220    4.4390 H       2  LIG2        0.0269
     25    H       28.3780    5.8520    6.1000 H       2  LIG2        0.0269
     26    H       24.1570    5.3030    3.1150 H       2  LIG2        0.0293
     27    H       24.0700    5.1370    4.8340 H       2  LIG2        0.0293
     28    H       25.4180   -0.1070    1.4200 H       2  LIG2        0.0235
     29    H       27.1050   -0.2640    1.9070 H       2  LIG2        0.0235
     30    H       26.5970    1.0930    0.9150 H       2  LIG2        0.0235
     31    H       24.6940   -0.2530    3.9050 H       2  LIG2        0.0235
     32    H       25.3100    0.8520    5.1050 H       2  LIG2        0.0235
     33    H       26.3660   -0.3720    4.4380 H       2  LIG2        0.0235
     34    H       29.0820    3.6810    6.8510 H       2  LIG2        0.0268
     35    H       30.3290    4.1010    5.6800 H       2  LIG2        0.0268
     36    H       28.5970    1.1990    6.4640 H       2  LIG2        0.0233
     37    H       30.1700    1.2100    5.6720 H       2  LIG2        0.0233
     38    H       28.7690    0.5520    4.8350 H       2  LIG2        0.0233
     39    H       25.6370    6.8950    5.6050 H       2  LIG2        0.0257
     40    H       25.3750    7.4310    3.9510 H       2  LIG2        0.0257
     41    H       27.0040    7.3180    4.5860 H       2  LIG2        0.0257
     42    H       27.5420    5.8400    2.8830 H       2  LIG2        0.2102
@<TRIPOS>BOND
     1    30    12    1
     2    28    12    1
     3    12    29    1
     4    12     3    1
     5    18     4    1
     6    17     2    1
     7     1    42    1
     8     1     9    1
     9     4     3    1
    10     4     2    1
    11     4     7    1
    12     3     2    1
    13     3    13    1
    14    26    11    1
    15     2     5    1
    16    21     7    1
    17     7    11    1
    18     7    22    1
    19    31    13    1
    20    40    16    1
    21    11     9    1
    22    11    27    1
    23    23     8    1
    24     9    16    1
    25     9     6    1
    26    13    33    1
    27    13    32    1
    28    24    10    1
    29    41    16    1
    30    16    39    1
    31     5     8    1
    32     5     6    1
    33     5    19    1
    34    38    15    1
    35     8    15    1
    36     8    14    1
    37     6    10    1
    38     6    20    1
    39    10    14    1
    40    10    25    1
    41    15    37    1
    42    15    36    1
    43    35    14    1
    44    14    34    1
@<TRIPOS>MOLECULE
11996452_7_run_14.pdb
 42 44 0 0 0
SMALL
GASTEIGER

@<TRIPOS>ATOM
      1    O       27.6670    0.5590    6.2320 O.3     2  LIG2       -0.3886
      2    C       26.2460    1.7120    3.9120 C.3     2  LIG2       -0.0289
      3    C       25.5240    1.2310    2.6590 C.3     2  LIG2       -0.0284
      4    C       26.3290    0.2450    3.4720 C.3     2  LIG2       -0.0319
      5    C       27.5380    2.5820    3.8740 C.3     2  LIG2       -0.0294
      6    C       28.7740    2.1030    4.7140 C.3     2  LIG2       -0.0090
      7    C       27.7190   -0.2900    3.0830 C.3     2  LIG2       -0.0468
      8    C       27.2520    4.0450    4.2980 C.3     2  LIG2       -0.0404
      9    C       28.7700    0.6630    5.3450 C.3     2  LIG2        0.0664
     10    C       29.0460    3.2560    5.7010 C.3     2  LIG2       -0.0471
     11    C       28.6580   -0.4890    4.2930 C.3     2  LIG2       -0.0237
     12    C       23.9910    1.1260    2.7560 C.3     2  LIG2       -0.0593
     13    C       25.9780    1.6430    1.2400 C.3     2  LIG2       -0.0593
     14    C       28.5210    4.5120    5.0120 C.3     2  LIG2       -0.0498
     15    C       26.8260    4.9510    3.1290 C.3     2  LIG2       -0.0621
     16    C       30.0290    0.4060    6.2090 C.3     2  LIG2       -0.0358
     17    H       25.6520    1.9020    4.8080 H       2  LIG2        0.0312
     18    H       25.7610   -0.4980    4.0310 H       2  LIG2        0.0309
     19    H       27.9040    2.6180    2.8500 H       2  LIG2        0.0310
     20    H       29.6290    2.1040    4.0340 H       2  LIG2        0.0331
     21    H       27.5990   -1.2400    2.5630 H       2  LIG2        0.0269
     22    H       28.2160    0.3650    2.3700 H       2  LIG2        0.0269
     23    H       26.4530    4.0600    5.0420 H       2  LIG2        0.0301
     24    H       28.5200    3.0950    6.6430 H       2  LIG2        0.0269
     25    H       30.1070    3.3540    5.9350 H       2  LIG2        0.0269
     26    H       28.3920   -1.4200    4.7970 H       2  LIG2        0.0293
     27    H       29.6480   -0.6730    3.8730 H       2  LIG2        0.0293
     28    H       23.6030    0.3880    2.0530 H       2  LIG2        0.0235
     29    H       23.5180    2.0820    2.5330 H       2  LIG2        0.0235
     30    H       23.6610    0.8270    3.7520 H       2  LIG2        0.0235
     31    H       25.6060    0.9350    0.4990 H       2  LIG2        0.0235
     32    H       27.0550    1.6910    1.1050 H       2  LIG2        0.0235
     33    H       25.5820    2.6260    0.9810 H       2  LIG2        0.0235
     34    H       29.2540    4.8930    4.2990 H       2  LIG2        0.0268
     35    H       28.3190    5.3060    5.7330 H       2  LIG2        0.0268
     36    H       27.5940    4.9960    2.3550 H       2  LIG2        0.0233
     37    H       26.6400    5.9700    3.4710 H       2  LIG2        0.0233
     38    H       25.9090    4.5870    2.6650 H       2  LIG2        0.0233
     39    H       30.9410    0.5160    5.6220 H       2  LIG2        0.0257
     40    H       30.0310   -0.6010    6.6300 H       2  LIG2        0.0257
     41    H       30.0990    1.0980    7.0490 H       2  LIG2        0.0257
     42    H       27.7290    1.2680    6.8760 H       2  LIG2        0.2102
@<TRIPOS>BOND
     1    31    13    1
     2    33    13    1
     3    32    13    1
     4    13     3    1
     5    28    12    1
     6    36    15    1
     7    22     7    1
     8    29    12    1
     9    21     7    1
    10     3    12    1
    11     3     4    1
    12     3     2    1
    13    38    15    1
    14    12    30    1
    15    19     5    1
    16     7     4    1
    17     7    11    1
    18    15    37    1
    19    15     8    1
    20     4     2    1
    21     4    18    1
    22    27    11    1
    23     5     2    1
    24     5     8    1
    25     5     6    1
    26     2    17    1
    27    20     6    1
    28    11    26    1
    29    11     9    1
    30     8    14    1
    31     8    23    1
    32    34    14    1
    33     6     9    1
    34     6    10    1
    35    14    10    1
    36    14    35    1
    37     9    16    1
    38     9     1    1
    39    39    16    1
    40    10    25    1
    41    10    24    1
    42    16    40    1
    43    16    41    1
    44     1    42    1
