@<TRIPOS>MOLECULE
11996452_run_1.pdb
 42 44 0 0 0
SMALL
GASTEIGER

@<TRIPOS>ATOM
      1    O       30.3490   -0.1930    4.5620 O.3     2  LIG2       -0.3886
      2    C       26.6380    2.2690    4.6130 C.3     2  LIG2       -0.0289
      3    C       26.3500    3.7620    4.5120 C.3     2  LIG2       -0.0284
      4    C       27.6650    3.3050    5.0970 C.3     2  LIG2       -0.0319
      5    C       27.0050    1.3840    3.3860 C.3     2  LIG2       -0.0294
      6    C       28.2160    0.4160    3.6020 C.3     2  LIG2       -0.0090
      7    C       29.0170    3.3470    4.3590 C.3     2  LIG2       -0.0468
      8    C       25.8490    0.4720    2.9060 C.3     2  LIG2       -0.0404
      9    C       29.2720    0.7170    4.7290 C.3     2  LIG2        0.0664
     10    C       27.6210   -1.0160    3.5930 C.3     2  LIG2       -0.0471
     11    C       29.9310    2.1350    4.6440 C.3     2  LIG2       -0.0237
     12    C       26.2950    4.4970    3.1520 C.3     2  LIG2       -0.0593
     13    C       25.3060    4.3210    5.4970 C.3     2  LIG2       -0.0593
     14    C       26.1000   -0.8620    3.6100 C.3     2  LIG2       -0.0498
     15    C       24.4200    1.0240    3.0850 C.3     2  LIG2       -0.0621
     16    C       28.7920    0.4210    6.1780 C.3     2  LIG2       -0.0358
     17    H       26.1150    1.7020    5.3840 H       2  LIG2        0.0312
     18    H       27.7920    3.4620    6.1690 H       2  LIG2        0.0309
     19    H       27.2530    2.0340    2.5490 H       2  LIG2        0.0310
     20    H       28.7860    0.4870    2.6710 H       2  LIG2        0.0331
     21    H       28.8810    3.4230    3.2830 H       2  LIG2        0.0269
     22    H       29.5420    4.2620    4.6390 H       2  LIG2        0.0269
     23    H       25.9800    0.3060    1.8340 H       2  LIG2        0.0301
     24    H       27.9250   -1.5350    2.6830 H       2  LIG2        0.0269
     25    H       27.9590   -1.6400    4.4190 H       2  LIG2        0.0269
     26    H       30.6870    2.1410    3.8540 H       2  LIG2        0.0293
     27    H       30.4800    2.3340    5.5660 H       2  LIG2        0.0293
     28    H       26.4610    5.5670    3.2900 H       2  LIG2        0.0235
     29    H       25.3180    4.3740    2.6880 H       2  LIG2        0.0235
     30    H       27.0330    4.1640    2.4270 H       2  LIG2        0.0235
     31    H       25.4690    5.3820    5.6810 H       2  LIG2        0.0235
     32    H       25.3410    3.8150    6.4630 H       2  LIG2        0.0235
     33    H       24.2960    4.1980    5.1050 H       2  LIG2        0.0235
     34    H       25.7310   -0.8310    4.6360 H       2  LIG2        0.0268
     35    H       25.6070   -1.6930    3.1050 H       2  LIG2        0.0268
     36    H       24.1550    1.1500    4.1360 H       2  LIG2        0.0233
     37    H       23.6870    0.3490    2.6430 H       2  LIG2        0.0233
     38    H       24.3100    1.9920    2.5950 H       2  LIG2        0.0233
     39    H       27.9810    1.0630    6.5070 H       2  LIG2        0.0257
     40    H       29.5980    0.5610    6.9010 H       2  LIG2        0.0257
     41    H       28.4460   -0.6040    6.3020 H       2  LIG2        0.0257
     42    H       30.9250    0.1430    3.8710 H       2  LIG2        0.2102
@<TRIPOS>BOND
     1    23     8    1
     2    30    12    1
     3    19     5    1
     4    38    15    1
     5    37    15    1
     6    20     6    1
     7    24    10    1
     8    29    12    1
     9     8    15    1
    10     8     5    1
    11     8    14    1
    12    15    36    1
    13    35    14    1
    14    12    28    1
    15    12     3    1
    16    21     7    1
    17     5     6    1
    18     5     2    1
    19    10     6    1
    20    10    14    1
    21    10    25    1
    22     6     9    1
    23    14    34    1
    24    26    11    1
    25    42     1    1
    26     7    22    1
    27     7    11    1
    28     7     4    1
    29     3     2    1
    30     3     4    1
    31     3    13    1
    32     1     9    1
    33     2     4    1
    34     2    17    1
    35    11     9    1
    36    11    27    1
    37     9    16    1
    38     4    18    1
    39    33    13    1
    40    13    31    1
    41    13    32    1
    42    16    41    1
    43    16    39    1
    44    16    40    1
@<TRIPOS>MOLECULE
11996452_run_4.pdb
 42 44 0 0 0
SMALL
GASTEIGER

@<TRIPOS>ATOM
      1    O       27.2030    5.9040    5.1050 O.3     2  LIG2       -0.3886
      2    C       27.2690    1.7560    3.4850 C.3     2  LIG2       -0.0289
      3    C       28.1680    0.5440    3.6990 C.3     2  LIG2       -0.0284
      4    C       28.7480    1.9280    3.8670 C.3     2  LIG2       -0.0319
      5    C       26.1860    2.2080    4.5070 C.3     2  LIG2       -0.0294
      6    C       26.1600    3.7420    4.8160 C.3     2  LIG2       -0.0090
      7    C       29.0470    2.5970    5.2230 C.3     2  LIG2       -0.0468
      8    C       24.7390    1.8660    4.0750 C.3     2  LIG2       -0.0404
      9    C       27.4410    4.6190    4.5500 C.3     2  LIG2        0.0664
     10    C       24.8350    4.2740    4.2120 C.3     2  LIG2       -0.0471
     11    C       28.7390    4.1100    5.2620 C.3     2  LIG2       -0.0237
     12    C       27.9980   -0.4010    4.9120 C.3     2  LIG2       -0.0593
     13    C       28.5750   -0.2330    2.4320 C.3     2  LIG2       -0.0593
     14    C       24.2390    3.1360    3.3840 C.3     2  LIG2       -0.0498
     15    C       24.5560    0.5800    3.2450 C.3     2  LIG2       -0.0621
     16    C       27.7230    4.9350    3.0540 C.3     2  LIG2       -0.0358
     17    H       26.9960    2.0100    2.4610 H       2  LIG2        0.0312
     18    H       29.4580    2.2460    3.1020 H       2  LIG2        0.0309
     19    H       26.3570    1.6890    5.4490 H       2  LIG2        0.0310
     20    H       26.0150    3.7960    5.8980 H       2  LIG2        0.0331
     21    H       28.5000    2.1190    6.0320 H       2  LIG2        0.0269
     22    H       30.0990    2.4430    5.4670 H       2  LIG2        0.0269
     23    H       24.1440    1.7320    4.9810 H       2  LIG2        0.0301
     24    H       24.1460    4.5420    5.0150 H       2  LIG2        0.0269
     25    H       24.9540    5.1740    3.6090 H       2  LIG2        0.0269
     26    H       28.7050    4.3790    6.3210 H       2  LIG2        0.0293
     27    H       29.6030    4.6430    4.8610 H       2  LIG2        0.0293
     28    H       28.9220   -0.9490    5.1020 H       2  LIG2        0.0235
     29    H       27.2150   -1.1340    4.7200 H       2  LIG2        0.0235
     30    H       27.7400    0.0980    5.8420 H       2  LIG2        0.0235
     31    H       29.5150   -0.7630    2.5820 H       2  LIG2        0.0235
     32    H       28.7070    0.4250    1.5720 H       2  LIG2        0.0235
     33    H       27.8140   -0.9670    2.1640 H       2  LIG2        0.0235
     34    H       24.6000    3.1830    2.3550 H       2  LIG2        0.0268
     35    H       23.1510    3.1870    3.3550 H       2  LIG2        0.0268
     36    H       25.0480    0.6420    2.2730 H       2  LIG2        0.0233
     37    H       23.4990    0.3840    3.0620 H       2  LIG2        0.0233
     38    H       24.9630   -0.2860    3.7690 H       2  LIG2        0.0233
     39    H       27.9720    4.0600    2.4630 H       2  LIG2        0.0257
     40    H       28.5660    5.6210    2.9440 H       2  LIG2        0.0257
     41    H       26.8770    5.4120    2.5610 H       2  LIG2        0.0257
     42    H       27.0710    5.8060    6.0510 H       2  LIG2        0.2102
@<TRIPOS>BOND
     1    32    13    1
     2    33    13    1
     3    36    15    1
     4    34    14    1
     5    13    31    1
     6    13     3    1
     7    17     2    1
     8    39    16    1
     9    41    16    1
    10    40    16    1
    11    16     9    1
    12    37    15    1
    13    18     4    1
    14    15    38    1
    15    15     8    1
    16    35    14    1
    17    14     8    1
    18    14    10    1
    19     2     3    1
    20     2     4    1
    21     2     5    1
    22    25    10    1
    23     3     4    1
    24     3    12    1
    25     4     7    1
    26     8     5    1
    27     8    23    1
    28    10     6    1
    29    10    24    1
    30     5     6    1
    31     5    19    1
    32     9     6    1
    33     9     1    1
    34     9    11    1
    35    29    12    1
    36     6    20    1
    37    27    11    1
    38    12    28    1
    39    12    30    1
    40     1    42    1
    41     7    11    1
    42     7    22    1
    43     7    21    1
    44    11    26    1
@<TRIPOS>MOLECULE
11996452_run_18.pdb
 42 44 0 0 0
SMALL
GASTEIGER

@<TRIPOS>ATOM
      1    O       26.4240   -1.1550    3.1720 O.3     2  LIG2       -0.3886
      2    C       27.1000    3.2060    3.7750 C.3     2  LIG2       -0.0289
      3    C       26.2000    4.4350    3.7580 C.3     2  LIG2       -0.0284
      4    C       25.8280    3.2390    2.9140 C.3     2  LIG2       -0.0319
      5    C       27.1590    2.2060    4.9670 C.3     2  LIG2       -0.0294
      6    C       27.1190    0.6920    4.5680 C.3     2  LIG2       -0.0090
      7    C       24.7200    2.2270    3.2630 C.3     2  LIG2       -0.0468
      8    C       28.4280    2.3510    5.8420 C.3     2  LIG2       -0.0404
      9    C       26.5230    0.2610    3.1770 C.3     2  LIG2        0.0664
     10    C       28.5190    0.1260    4.9130 C.3     2  LIG2       -0.0471
     11    C       25.0650    0.7640    2.9070 C.3     2  LIG2       -0.0237
     12    C       25.3450    4.8440    4.9800 C.3     2  LIG2       -0.0593
     13    C       26.7470    5.6680    3.0150 C.3     2  LIG2       -0.0593
     14    C       29.4030    1.3200    5.2720 C.3     2  LIG2       -0.0498
     15    C       29.0120    3.7730    5.9720 C.3     2  LIG2       -0.0621
     16    C       27.4370    0.5480    1.9520 C.3     2  LIG2       -0.0358
     17    H       28.0510    3.2660    3.2450 H       2  LIG2        0.0312
     18    H       25.9230    3.3660    1.8340 H       2  LIG2        0.0309
     19    H       26.3090    2.3930    5.6210 H       2  LIG2        0.0310
     20    H       26.4460    0.2390    5.3020 H       2  LIG2        0.0331
     21    H       24.4630    2.2660    4.3200 H       2  LIG2        0.0269
     22    H       23.8050    2.5130    2.7430 H       2  LIG2        0.0269
     23    H       28.1710    2.0330    6.8550 H       2  LIG2        0.0301
     24    H       28.4450   -0.5450    5.7710 H       2  LIG2        0.0269
     25    H       28.9670   -0.4630    4.1130 H       2  LIG2        0.0269
     26    H       24.3560    0.1470    3.4660 H       2  LIG2        0.0293
     27    H       24.8160    0.6030    1.8570 H       2  LIG2        0.0293
     28    H       24.5150    5.4800    4.6700 H       2  LIG2        0.0235
     29    H       25.9420    5.4100    5.6940 H       2  LIG2        0.0235
     30    H       24.9070    4.0120    5.5250 H       2  LIG2        0.0235
     31    H       25.9370    6.3050    2.6620 H       2  LIG2        0.0235
     32    H       27.3450    5.3910    2.1450 H       2  LIG2        0.0235
     33    H       27.3840    6.2650    3.6680 H       2  LIG2        0.0235
     34    H       29.8990    1.7100    4.3810 H       2  LIG2        0.0268
     35    H       30.1770    1.0470    5.9890 H       2  LIG2        0.0268
     36    H       29.3790    4.1560    5.0190 H       2  LIG2        0.0233
     37    H       29.8490    3.7850    6.6710 H       2  LIG2        0.0233
     38    H       28.2640    4.4720    6.3470 H       2  LIG2        0.0233
     39    H       27.5970    1.6060    1.7660 H       2  LIG2        0.0257
     40    H       27.0100    0.1430    1.0320 H       2  LIG2        0.0257
     41    H       28.4240    0.0980    2.0530 H       2  LIG2        0.0257
     42    H       26.0990   -1.4330    2.3130 H       2  LIG2        0.2102
@<TRIPOS>BOND
     1    40    16    1
     2    39    16    1
     3    18     4    1
     4    27    11    1
     5    16    41    1
     6    16     9    1
     7    32    13    1
     8    42     1    1
     9    31    13    1
    10    22     7    1
    11    11     9    1
    12    11     7    1
    13    11    26    1
    14     4     7    1
    15     4     3    1
    16     4     2    1
    17    13    33    1
    18    13     3    1
    19     1     9    1
    20     9     6    1
    21    17     2    1
    22     7    21    1
    23     3     2    1
    24     3    12    1
    25     2     5    1
    26    25    10    1
    27    34    14    1
    28     6    10    1
    29     6     5    1
    30     6    20    1
    31    28    12    1
    32    10    14    1
    33    10    24    1
    34     5    19    1
    35     5     8    1
    36    12    30    1
    37    12    29    1
    38    36    15    1
    39    14     8    1
    40    14    35    1
    41     8    15    1
    42     8    23    1
    43    15    38    1
    44    15    37    1
@<TRIPOS>MOLECULE
11996452_run_23.pdb
 42 44 0 0 0
SMALL
GASTEIGER

@<TRIPOS>ATOM
      1    O       25.8100    4.5930    3.3140 O.3     2  LIG2       -0.3886
      2    C       27.1790    0.4740    4.3100 C.3     2  LIG2       -0.0289
      3    C       27.2590   -0.8370    3.5370 C.3     2  LIG2       -0.0284
      4    C       26.1970    0.1710    3.1670 C.3     2  LIG2       -0.0319
      5    C       28.1930    1.6400    4.1210 C.3     2  LIG2       -0.0294
      6    C       27.5550    3.0630    3.9910 C.3     2  LIG2       -0.0090
      7    C       26.2520    1.0930    1.9340 C.3     2  LIG2       -0.0468
      8    C       29.2190    1.7690    5.2740 C.3     2  LIG2       -0.0404
      9    C       26.0530    3.2130    3.5420 C.3     2  LIG2        0.0664
     10    C       27.9590    3.8280    5.2770 C.3     2  LIG2       -0.0471
     11    C       25.7060    2.5160    2.1840 C.3     2  LIG2       -0.0237
     12    C       28.4270   -1.1530    2.5730 C.3     2  LIG2       -0.0593
     13    C       26.7910   -2.0980    4.2880 C.3     2  LIG2       -0.0593
     14    C       28.6030    2.8070    6.2140 C.3     2  LIG2       -0.0498
     15    C       29.6400    0.4570    5.9670 C.3     2  LIG2       -0.0621
     16    C       25.0020    2.8520    4.6290 C.3     2  LIG2       -0.0358
     17    H       26.7770    0.4420    5.3220 H       2  LIG2        0.0312
     18    H       25.1700   -0.1040    3.4120 H       2  LIG2        0.0309
     19    H       28.7690    1.4580    3.2150 H       2  LIG2        0.0310
     20    H       28.1250    3.5420    3.1910 H       2  LIG2        0.0331
     21    H       27.2650    1.1820    1.5480 H       2  LIG2        0.0269
     22    H       25.6850    0.6320    1.1240 H       2  LIG2        0.0269
     23    H       30.1310    2.2030    4.8610 H       2  LIG2        0.0301
     24    H       28.6840    4.6060    5.0310 H       2  LIG2        0.0269
     25    H       27.1300    4.3380    5.7670 H       2  LIG2        0.0269
     26    H       26.0740    3.1260    1.3550 H       2  LIG2        0.0293
     27    H       24.6220    2.4900    2.0590 H       2  LIG2        0.0293
     28    H       28.1320   -1.9170    1.8530 H       2  LIG2        0.0235
     29    H       29.2860   -1.5360    3.1240 H       2  LIG2        0.0235
     30    H       28.7780   -0.3040    1.9930 H       2  LIG2        0.0235
     31    H       26.4560   -2.8670    3.5930 H       2  LIG2        0.0235
     32    H       25.9610   -1.8890    4.9640 H       2  LIG2        0.0235
     33    H       27.5990   -2.5160    4.8890 H       2  LIG2        0.0235
     34    H       27.8480    2.3470    6.8550 H       2  LIG2        0.0268
     35    H       29.3490    3.2690    6.8610 H       2  LIG2        0.0268
     36    H       28.8090   -0.0200    6.4880 H       2  LIG2        0.0233
     37    H       30.4220    0.6430    6.7040 H       2  LIG2        0.0233
     38    H       30.0360   -0.2580    5.2450 H       2  LIG2        0.0233
     39    H       25.0070    1.8030    4.9100 H       2  LIG2        0.0257
     40    H       23.9870    3.0650    4.2880 H       2  LIG2        0.0257
     41    H       25.1390    3.4200    5.5480 H       2  LIG2        0.0257
     42    H       26.4550    4.9140    2.6800 H       2  LIG2        0.2102
@<TRIPOS>BOND
     1    22     7    1
     2    26    11    1
     3    21     7    1
     4    28    12    1
     5     7    11    1
     6     7     4    1
     7    30    12    1
     8    27    11    1
     9    11     9    1
    10    12    29    1
    11    12     3    1
    12    42     1    1
    13     4    18    1
    14     4     3    1
    15     4     2    1
    16    20     6    1
    17    19     5    1
    18     1     9    1
    19     3    13    1
    20     3     2    1
    21     9     6    1
    22     9    16    1
    23    31    13    1
    24     6     5    1
    25     6    10    1
    26     5     2    1
    27     5     8    1
    28    40    16    1
    29    13    33    1
    30    13    32    1
    31     2    17    1
    32    16    39    1
    33    16    41    1
    34    23     8    1
    35    24    10    1
    36    38    15    1
    37     8    15    1
    38     8    14    1
    39    10    25    1
    40    10    14    1
    41    15    36    1
    42    15    37    1
    43    14    34    1
    44    14    35    1
@<TRIPOS>MOLECULE
11996452_run_4.pdb
 42 44 0 0 0
SMALL
GASTEIGER

@<TRIPOS>ATOM
      1    O       30.4800   -1.0210    4.2280 O.3     2  LIG2       -0.3886
      2    C       26.9010    1.4560    3.2880 C.3     2  LIG2       -0.0289
      3    C       25.4310    1.1480    3.0340 C.3     2  LIG2       -0.0284
      4    C       26.4700    0.1080    2.6900 C.3     2  LIG2       -0.0319
      5    C       27.5400    1.4630    4.7080 C.3     2  LIG2       -0.0294
      6    C       28.9110    0.7180    4.8250 C.3     2  LIG2       -0.0090
      7    C       26.7610   -1.1540    3.5260 C.3     2  LIG2       -0.0468
      8    C       27.8120    2.8830    5.2630 C.3     2  LIG2       -0.0404
      9    C       29.3030   -0.3780    3.7650 C.3     2  LIG2        0.0664
     10    C       29.9710    1.8170    5.0890 C.3     2  LIG2       -0.0471
     11    C       28.2570   -1.5310    3.6010 C.3     2  LIG2       -0.0237
     12    C       24.4270    0.9210    4.1890 C.3     2  LIG2       -0.0593
     13    C       24.7750    1.8930    1.8550 C.3     2  LIG2       -0.0593
     14    C       29.2700    3.1620    4.8940 C.3     2  LIG2       -0.0498
     15    C       26.8270    3.9890    4.8320 C.3     2  LIG2       -0.0621
     16    C       29.7340    0.1730    2.3770 C.3     2  LIG2       -0.0358
     17    H       27.3980    2.1540    2.6130 H       2  LIG2        0.0312
     18    H       26.6310   -0.0750    1.6270 H       2  LIG2        0.0309
     19    H       26.8500    0.9880    5.4030 H       2  LIG2        0.0310
     20    H       28.8380    0.1680    5.7680 H       2  LIG2        0.0331
     21    H       26.3860   -1.0530    4.5420 H       2  LIG2        0.0269
     22    H       26.2030   -1.9910    3.1050 H       2  LIG2        0.0269
     23    H       27.7550    2.8310    6.3530 H       2  LIG2        0.0301
     24    H       30.3340    1.7400    6.1150 H       2  LIG2        0.0269
     25    H       30.8530    1.7420    4.4540 H       2  LIG2        0.0269
     26    H       28.3450   -2.2280    4.4390 H       2  LIG2        0.0293
     27    H       28.5030   -2.1190    2.7150 H       2  LIG2        0.0293
     28    H       23.5630    0.3560    3.8380 H       2  LIG2        0.0235
     29    H       24.0630    1.8730    4.5740 H       2  LIG2        0.0235
     30    H       24.8290    0.3720    5.0360 H       2  LIG2        0.0235
     31    H       23.9270    1.3330    1.4610 H       2  LIG2        0.0235
     32    H       25.4710    2.0510    1.0310 H       2  LIG2        0.0235
     33    H       24.4140    2.8740    2.1660 H       2  LIG2        0.0235
     34    H       29.3490    3.4860    3.8550 H       2  LIG2        0.0268
     35    H       29.7110    3.9390    5.5180 H       2  LIG2        0.0268
     36    H       26.8650    4.1800    3.7590 H       2  LIG2        0.0233
     37    H       27.0540    4.9270    5.3390 H       2  LIG2        0.0233
     38    H       25.8010    3.7200    5.0870 H       2  LIG2        0.0233
     39    H       28.9340    0.6730    1.8390 H       2  LIG2        0.0257
     40    H       30.0810   -0.6270    1.7200 H       2  LIG2        0.0257
     41    H       30.5540    0.8860    2.4460 H       2  LIG2        0.0257
     42    H       31.2210   -0.4240    4.1030 H       2  LIG2        0.2102
@<TRIPOS>BOND
     1    32    13    1
     2    31    13    1
     3    18     4    1
     4    40    16    1
     5    39    16    1
     6    13    33    1
     7    13     3    1
     8    16    41    1
     9    16     9    1
    10    17     2    1
    11     4     3    1
    12     4     2    1
    13     4     7    1
    14    27    11    1
    15     3     2    1
    16     3    12    1
    17    22     7    1
    18     2     5    1
    19     7    11    1
    20     7    21    1
    21    11     9    1
    22    11    26    1
    23    36    15    1
    24     9     1    1
    25     9     6    1
    26    28    12    1
    27    34    14    1
    28    42     1    1
    29    12    29    1
    30    12    30    1
    31    25    10    1
    32     5     6    1
    33     5     8    1
    34     5    19    1
    35     6    10    1
    36     6    20    1
    37    15    38    1
    38    15     8    1
    39    15    37    1
    40    14    10    1
    41    14     8    1
    42    14    35    1
    43    10    24    1
    44     8    23    1
@<TRIPOS>MOLECULE
11996452_run_10.pdb
 42 44 0 0 0
SMALL
GASTEIGER

@<TRIPOS>ATOM
      1    O       23.5310    3.0350    2.6050 O.3     2  LIG2       -0.3886
      2    C       27.3030    2.0010    4.7370 C.3     2  LIG2       -0.0289
      3    C       28.4190    0.9930    4.4950 C.3     2  LIG2       -0.0284
      4    C       27.0260    0.6780    4.0040 C.3     2  LIG2       -0.0319
      5    C       27.1630    3.3290    3.9370 C.3     2  LIG2       -0.0294
      6    C       25.7180    3.6520    3.4290 C.3     2  LIG2       -0.0090
      7    C       26.5690    0.7730    2.5360 C.3     2  LIG2       -0.0468
      8    C       27.5930    4.5860    4.7340 C.3     2  LIG2       -0.0404
      9    C       24.6650    2.4940    3.2660 C.3     2  LIG2        0.0664
     10    C       25.2500    4.8880    4.2390 C.3     2  LIG2       -0.0471
     11    C       25.1320    1.3100    2.3550 C.3     2  LIG2       -0.0237
     12    C       29.5710    1.2660    3.5000 C.3     2  LIG2       -0.0593
     13    C       28.9130    0.2180    5.7310 C.3     2  LIG2       -0.0593
     14    C       26.2910    5.1180    5.3350 C.3     2  LIG2       -0.0498
     15    C       28.7300    4.3930    5.7580 C.3     2  LIG2       -0.0621
     16    C       24.0650    1.9580    4.5970 C.3     2  LIG2       -0.0358
     17    H       26.9100    2.0910    5.7500 H       2  LIG2        0.0312
     18    H       26.5010   -0.1190    4.5330 H       2  LIG2        0.0309
     19    H       27.8120    3.2810    3.0650 H       2  LIG2        0.0310
     20    H       25.8680    4.0260    2.4120 H       2  LIG2        0.0331
     21    H       27.2400    1.3970    1.9500 H       2  LIG2        0.0269
     22    H       26.6390   -0.2160    2.0810 H       2  LIG2        0.0269
     23    H       27.9500    5.3290    4.0170 H       2  LIG2        0.0301
     24    H       25.2070    5.7620    3.5870 H       2  LIG2        0.0269
     25    H       24.2520    4.7850    4.6650 H       2  LIG2        0.0269
     26    H       25.0550    1.6050    1.3050 H       2  LIG2        0.0293
     27    H       24.4410    0.4730    2.4670 H       2  LIG2        0.0293
     28    H       30.0310    0.3290    3.1830 H       2  LIG2        0.0235
     29    H       30.3480    1.8700    3.9680 H       2  LIG2        0.0235
     30    H       29.2730    1.7840    2.5930 H       2  LIG2        0.0235
     31    H       29.3470   -0.7400    5.4460 H       2  LIG2        0.0235
     32    H       28.1070    0.0120    6.4370 H       2  LIG2        0.0235
     33    H       29.6750    0.7850    6.2680 H       2  LIG2        0.0235
     34    H       26.0260    4.5620    6.2360 H       2  LIG2        0.0268
     35    H       26.3640    6.1720    5.6050 H       2  LIG2        0.0268
     36    H       28.4440    3.7250    6.5710 H       2  LIG2        0.0233
     37    H       29.0150    5.3460    6.2040 H       2  LIG2        0.0233
     38    H       29.6190    3.9770    5.2810 H       2  LIG2        0.0233
     39    H       24.7910    1.4600    5.2330 H       2  LIG2        0.0257
     40    H       23.2770    1.2250    4.4130 H       2  LIG2        0.0257
     41    H       23.6130    2.7450    5.1990 H       2  LIG2        0.0257
     42    H       22.8370    2.3720    2.6040 H       2  LIG2        0.2102
@<TRIPOS>BOND
     1    26    11    1
     2    21     7    1
     3    22     7    1
     4    11    27    1
     5    11     7    1
     6    11     9    1
     7    20     6    1
     8     7     4    1
     9    30    12    1
    10    42     1    1
    11     1     9    1
    12    19     5    1
    13    28    12    1
    14     9     6    1
    15     9    16    1
    16     6     5    1
    17     6    10    1
    18    12    29    1
    19    12     3    1
    20    24    10    1
    21     5     8    1
    22     5     2    1
    23     4     3    1
    24     4    18    1
    25     4     2    1
    26    23     8    1
    27    10    25    1
    28    10    14    1
    29    40    16    1
    30     3     2    1
    31     3    13    1
    32    16    41    1
    33    16    39    1
    34     8    14    1
    35     8    15    1
    36     2    17    1
    37    38    15    1
    38    14    35    1
    39    14    34    1
    40    31    13    1
    41    13    33    1
    42    13    32    1
    43    15    37    1
    44    15    36    1
@<TRIPOS>MOLECULE
11996452_run_15.pdb
 42 44 0 0 0
SMALL
GASTEIGER

@<TRIPOS>ATOM
      1    O       28.0280    5.6720    5.6050 O.3     2  LIG2       -0.3886
      2    C       26.5400    1.8330    3.9080 C.3     2  LIG2       -0.0289
      3    C       25.4710    1.4640    2.8860 C.3     2  LIG2       -0.0284
      4    C       25.3050    2.7250    3.7010 C.3     2  LIG2       -0.0319
      5    C       27.9350    2.4030    3.5190 C.3     2  LIG2       -0.0294
      6    C       28.4080    3.6380    4.3570 C.3     2  LIG2       -0.0090
      7    C       25.5530    4.1510    3.1740 C.3     2  LIG2       -0.0468
      8    C       29.0870    1.3750    3.6440 C.3     2  LIG2       -0.0404
      9    C       27.3500    4.5270    5.1100 C.3     2  LIG2        0.0664
     10    C       29.6060    3.1410    5.2050 C.3     2  LIG2       -0.0471
     11    C       26.2120    5.0990    4.2010 C.3     2  LIG2       -0.0237
     12    C       25.7350    1.5290    1.3630 C.3     2  LIG2       -0.0593
     13    C       24.5640    0.2740    3.2510 C.3     2  LIG2       -0.0593
     14    C       29.6670    1.6230    5.0370 C.3     2  LIG2       -0.0498
     15    C       28.7250   -0.0980    3.3610 C.3     2  LIG2       -0.0621
     16    C       26.7570    3.8930    6.4000 C.3     2  LIG2       -0.0358
     17    H       26.5770    1.2570    4.8330 H       2  LIG2        0.0312
     18    H       24.5110    2.7100    4.4490 H       2  LIG2        0.0309
     19    H       27.9070    2.7090    2.4740 H       2  LIG2        0.0310
     20    H       28.8490    4.3110    3.6170 H       2  LIG2        0.0331
     21    H       26.1690    4.1430    2.2780 H       2  LIG2        0.0269
     22    H       24.6010    4.5790    2.8550 H       2  LIG2        0.0269
     23    H       29.8550    1.6460    2.9170 H       2  LIG2        0.0301
     24    H       30.5300    3.5870    4.8330 H       2  LIG2        0.0269
     25    H       29.5460    3.4150    6.2580 H       2  LIG2        0.0269
     26    H       26.5940    5.9440    3.6230 H       2  LIG2        0.0293
     27    H       25.4240    5.5180    4.8300 H       2  LIG2        0.0293
     28    H       24.7940    1.6080    0.8170 H       2  LIG2        0.0235
     29    H       26.2380    0.6250    1.0220 H       2  LIG2        0.0235
     30    H       26.3460    2.3700    1.0450 H       2  LIG2        0.0235
     31    H       23.6010    0.3450    2.7450 H       2  LIG2        0.0235
     32    H       24.3640    0.2240    4.3230 H       2  LIG2        0.0235
     33    H       25.0260   -0.6710    2.9640 H       2  LIG2        0.0235
     34    H       29.0620    1.1300    5.8000 H       2  LIG2        0.0268
     35    H       30.6870    1.2490    5.1300 H       2  LIG2        0.0268
     36    H       28.0180   -0.4960    4.0900 H       2  LIG2        0.0233
     37    H       29.6150   -0.7270    3.3930 H       2  LIG2        0.0233
     38    H       28.2820   -0.2090    2.3710 H       2  LIG2        0.0233
     39    H       26.1550    3.0090    6.2140 H       2  LIG2        0.0257
     40    H       26.1040    4.5940    6.9250 H       2  LIG2        0.0257
     41    H       27.5250    3.6010    7.1150 H       2  LIG2        0.0257
     42    H       27.4180    6.1730    6.1520 H       2  LIG2        0.2102
@<TRIPOS>BOND
     1    28    12    1
     2    29    12    1
     3    30    12    1
     4    12     3    1
     5    21     7    1
     6    38    15    1
     7    19     5    1
     8    31    13    1
     9    22     7    1
    10     3    13    1
    11     3     4    1
    12     3     2    1
    13    23     8    1
    14    33    13    1
    15     7     4    1
    16     7    11    1
    17    13    32    1
    18    15    37    1
    19    15     8    1
    20    15    36    1
    21     5     8    1
    22     5     2    1
    23     5     6    1
    24    20     6    1
    25    26    11    1
    26     8    14    1
    27     4     2    1
    28     4    18    1
    29     2    17    1
    30    11    27    1
    31    11     9    1
    32     6     9    1
    33     6    10    1
    34    24    10    1
    35    14    35    1
    36    14    10    1
    37    14    34    1
    38     9     1    1
    39     9    16    1
    40    10    25    1
    41     1    42    1
    42    39    16    1
    43    16    40    1
    44    16    41    1
@<TRIPOS>MOLECULE
11996452_run_16.pdb
 42 44 0 0 0
SMALL
GASTEIGER

@<TRIPOS>ATOM
      1    O       23.8280    5.5040    4.3850 O.3     2  LIG2       -0.3886
      2    C       26.6470    2.0560    4.4270 C.3     2  LIG2       -0.0289
      3    C       26.6790    0.6990    3.7360 C.3     2  LIG2       -0.0284
      4    C       25.3450    1.3450    4.0260 C.3     2  LIG2       -0.0319
      5    C       27.0110    3.3890    3.7100 C.3     2  LIG2       -0.0294
      6    C       26.0200    4.5740    3.9660 C.3     2  LIG2       -0.0090
      7    C       24.4600    2.0450    2.9770 C.3     2  LIG2       -0.0468
      8    C       28.4030    3.9470    4.0950 C.3     2  LIG2       -0.0404
      9    C       24.5460    4.2800    4.4320 C.3     2  LIG2        0.0664
     10    C       26.8060    5.6090    4.8110 C.3     2  LIG2       -0.0471
     11    C       23.7470    3.3130    3.4960 C.3     2  LIG2       -0.0237
     12    C       27.1820    0.5290    2.2830 C.3     2  LIG2       -0.0593
     13    C       27.0770   -0.5020    4.6140 C.3     2  LIG2       -0.0593
     14    C       28.1160    4.9380    5.2240 C.3     2  LIG2       -0.0498
     15    C       29.4900    2.9050    4.4290 C.3     2  LIG2       -0.0621
     16    C       24.3990    3.8500    5.9190 C.3     2  LIG2       -0.0358
     17    H       26.8790    2.0890    5.4920 H       2  LIG2        0.0312
     18    H       24.7420    0.8700    4.8010 H       2  LIG2        0.0309
     19    H       27.0360    3.2120    2.6360 H       2  LIG2        0.0310
     20    H       25.9050    5.0450    2.9850 H       2  LIG2        0.0331
     21    H       25.0310    2.3160    2.0920 H       2  LIG2        0.0269
     22    H       23.7110    1.3370    2.6190 H       2  LIG2        0.0269
     23    H       28.7790    4.5190    3.2450 H       2  LIG2        0.0301
     24    H       27.0220    6.4910    4.2050 H       2  LIG2        0.0269
     25    H       26.2620    5.9720    5.6820 H       2  LIG2        0.0269
     26    H       23.4170    3.8540    2.6050 H       2  LIG2        0.0293
     27    H       22.8270    3.0030    3.9970 H       2  LIG2        0.0293
     28    H       26.7850   -0.3890    1.8460 H       2  LIG2        0.0235
     29    H       28.2690    0.4600    2.2580 H       2  LIG2        0.0235
     30    H       26.9020    1.3350    1.6090 H       2  LIG2        0.0235
     31    H       26.6640   -1.4300    4.2200 H       2  LIG2        0.0235
     32    H       26.7190   -0.3970    5.6400 H       2  LIG2        0.0235
     33    H       28.1610   -0.6100    4.6590 H       2  LIG2        0.0235
     34    H       27.9940    4.4160    6.1740 H       2  LIG2        0.0268
     35    H       28.9190    5.6650    5.3460 H       2  LIG2        0.0268
     36    H       29.2490    2.3280    5.3220 H       2  LIG2        0.0233
     37    H       30.4500    3.3910    4.6050 H       2  LIG2        0.0233
     38    H       29.6260    2.2030    3.6050 H       2  LIG2        0.0233
     39    H       24.8590    2.8930    6.1440 H       2  LIG2        0.0257
     40    H       23.3490    3.7520    6.2040 H       2  LIG2        0.0257
     41    H       24.8340    4.5730    6.6080 H       2  LIG2        0.0257
     42    H       22.9290    5.3400    4.6760 H       2  LIG2        0.2102
@<TRIPOS>BOND
     1    30    12    1
     2    28    12    1
     3    21     7    1
     4    29    12    1
     5    12     3    1
     6    26    11    1
     7    22     7    1
     8    19     5    1
     9     7    11    1
    10     7     4    1
    11    20     6    1
    12    23     8    1
    13    11    27    1
    14    11     9    1
    15    38    15    1
    16     5     6    1
    17     5     8    1
    18     5     2    1
    19     3     4    1
    20     3     2    1
    21     3    13    1
    22     6     9    1
    23     6    10    1
    24     4     2    1
    25     4    18    1
    26     8    15    1
    27     8    14    1
    28    24    10    1
    29    31    13    1
    30     1     9    1
    31     1    42    1
    32     2    17    1
    33    15    37    1
    34    15    36    1
    35     9    16    1
    36    13    33    1
    37    13    32    1
    38    10    14    1
    39    10    25    1
    40    14    35    1
    41    14    34    1
    42    16    39    1
    43    16    40    1
    44    16    41    1
@<TRIPOS>MOLECULE
11996452_run_12.pdb
 42 44 0 0 0
SMALL
GASTEIGER

@<TRIPOS>ATOM
      1    O       28.2590    6.4210    5.3380 O.3     2  LIG2       -0.3886
      2    C       25.9330    3.1840    3.3520 C.3     2  LIG2       -0.0289
      3    C       26.1030    1.6750    3.2260 C.3     2  LIG2       -0.0284
      4    C       27.3290    2.5430    3.3840 C.3     2  LIG2       -0.0319
      5    C       25.4110    3.8800    4.6430 C.3     2  LIG2       -0.0294
      6    C       26.2250    5.1380    5.0970 C.3     2  LIG2       -0.0090
      7    C       28.1380    2.6920    4.6870 C.3     2  LIG2       -0.0468
      8    C       23.9460    4.3720    4.5390 C.3     2  LIG2       -0.0404
      9    C       27.7130    5.3250    4.6200 C.3     2  LIG2        0.0664
     10    C       25.2840    6.3510    4.8830 C.3     2  LIG2       -0.0471
     11    C       28.6600    4.1220    4.9470 C.3     2  LIG2       -0.0237
     12    C       25.6660    0.7020    4.3460 C.3     2  LIG2       -0.0593
     13    C       25.8490    1.0770    1.8290 C.3     2  LIG2       -0.0593
     14    C       24.0670    5.8360    4.1150 C.3     2  LIG2       -0.0498
     15    C       23.0020    3.5320    3.6550 C.3     2  LIG2       -0.0621
     16    C       27.8780    5.7670    3.1380 C.3     2  LIG2       -0.0358
     17    H       25.6710    3.7420    2.4530 H       2  LIG2        0.0312
     18    H       27.9710    2.6300    2.5060 H       2  LIG2        0.0309
     19    H       25.4380    3.1620    5.4610 H       2  LIG2        0.0310
     20    H       26.3010    5.0310    6.1830 H       2  LIG2        0.0331
     21    H       27.5590    2.3810    5.5530 H       2  LIG2        0.0269
     22    H       28.9850    2.0050    4.6560 H       2  LIG2        0.0269
     23    H       23.5180    4.3570    5.5440 H       2  LIG2        0.0301
     24    H       24.9660    6.7450    5.8500 H       2  LIG2        0.0269
     25    H       25.7510    7.1850    4.3600 H       2  LIG2        0.0269
     26    H       28.9350    4.1510    6.0040 H       2  LIG2        0.0293
     27    H       29.5990    4.2450    4.4040 H       2  LIG2        0.0293
     28    H       26.1950   -0.2480    4.2550 H       2  LIG2        0.0235
     29    H       24.5990    0.4910    4.2770 H       2  LIG2        0.0235
     30    H       25.8510    1.0610    5.3550 H       2  LIG2        0.0235
     31    H       26.3940    0.1430    1.6970 H       2  LIG2        0.0235
     32    H       26.1620    1.7520    1.0300 H       2  LIG2        0.0235
     33    H       24.7880    0.8710    1.6800 H       2  LIG2        0.0235
     34    H       24.2340    5.9140    3.0390 H       2  LIG2        0.0268
     35    H       23.1700    6.4080    4.3530 H       2  LIG2        0.0268
     36    H       23.2960    3.5490    2.6050 H       2  LIG2        0.0233
     37    H       21.9810    3.9100    3.7130 H       2  LIG2        0.0233
     38    H       22.9840    2.4910    3.9800 H       2  LIG2        0.0233
     39    H       27.5460    5.0210    2.4210 H       2  LIG2        0.0257
     40    H       28.9230    5.9690    2.8960 H       2  LIG2        0.0257
     41    H       27.3310    6.6810    2.9100 H       2  LIG2        0.0257
     42    H       28.0250    6.3240    6.2630 H       2  LIG2        0.2102
@<TRIPOS>BOND
     1    32    13    1
     2    33    13    1
     3    31    13    1
     4    13     3    1
     5    39    16    1
     6    17     2    1
     7    18     4    1
     8    36    15    1
     9    40    16    1
    10    41    16    1
    11    34    14    1
    12    16     9    1
    13     3     2    1
    14     3     4    1
    15     3    12    1
    16     2     4    1
    17     2     5    1
    18     4     7    1
    19    15    37    1
    20    15    38    1
    21    15     8    1
    22    14    35    1
    23    14     8    1
    24    14    10    1
    25    28    12    1
    26    29    12    1
    27    12    30    1
    28    25    10    1
    29    27    11    1
    30     8     5    1
    31     8    23    1
    32     9    11    1
    33     9     6    1
    34     9     1    1
    35     5     6    1
    36     5    19    1
    37    22     7    1
    38     7    11    1
    39     7    21    1
    40    10     6    1
    41    10    24    1
    42    11    26    1
    43     6    20    1
    44     1    42    1
@<TRIPOS>MOLECULE
11996452_run_1.pdb
 42 44 0 0 0
SMALL
GASTEIGER

@<TRIPOS>ATOM
      1    O       25.0690    7.5090    4.4210 O.3     2  LIG2       -0.3886
      2    C       26.6900    3.4190    3.7310 C.3     2  LIG2       -0.0289
      3    C       27.9980    2.7200    4.0800 C.3     2  LIG2       -0.0284
      4    C       27.9970    4.2150    3.8710 C.3     2  LIG2       -0.0319
      5    C       25.5550    3.6750    4.7660 C.3     2  LIG2       -0.0294
      6    C       24.9440    5.1160    4.7400 C.3     2  LIG2       -0.0090
      7    C       28.0620    5.2610    5.0010 C.3     2  LIG2       -0.0468
      8    C       24.3420    2.7270    4.6110 C.3     2  LIG2       -0.0404
      9    C       25.7680    6.3090    4.1280 C.3     2  LIG2        0.0664
     10    C       23.4950    4.9520    4.2160 C.3     2  LIG2       -0.0471
     11    C       27.1880    6.5110    4.7560 C.3     2  LIG2       -0.0237
     12    C       28.2570    2.1110    5.4780 C.3     2  LIG2       -0.0593
     13    C       28.6270    1.8610    2.9670 C.3     2  LIG2       -0.0593
     14    C       23.3600    3.5080    3.7350 C.3     2  LIG2       -0.0498
     15    C       24.6450    1.3020    4.1050 C.3     2  LIG2       -0.0621
     16    C       25.8470    6.3260    2.5750 C.3     2  LIG2       -0.0358
     17    H       26.3000    3.2920    2.7210 H       2  LIG2        0.0312
     18    H       28.4970    4.5730    2.9690 H       2  LIG2        0.0309
     19    H       25.9510    3.5080    5.7660 H       2  LIG2        0.0310
     20    H       24.8310    5.3790    5.7950 H       2  LIG2        0.0331
     21    H       27.7770    4.8310    5.9580 H       2  LIG2        0.0269
     22    H       29.0990    5.5730    5.1320 H       2  LIG2        0.0269
     23    H       23.8820    2.6110    5.5940 H       2  LIG2        0.0301
     24    H       22.7870    5.1360    5.0260 H       2  LIG2        0.0269
     25    H       23.2290    5.6520    3.4240 H       2  LIG2        0.0269
     26    H       27.0920    7.0010    5.7280 H       2  LIG2        0.0293
     27    H       27.7590    7.2090    4.1400 H       2  LIG2        0.0293
     28    H       29.3280    2.0100    5.6580 H       2  LIG2        0.0235
     29    H       27.8170    1.1170    5.5520 H       2  LIG2        0.0235
     30    H       27.8600    2.6930    6.3060 H       2  LIG2        0.0235
     31    H       29.7050    1.7720    3.1020 H       2  LIG2        0.0235
     32    H       28.4580    2.2860    1.9760 H       2  LIG2        0.0235
     33    H       28.2050    0.8560    2.9630 H       2  LIG2        0.0235
     34    H       23.6340    3.4280    2.6820 H       2  LIG2        0.0268
     35    H       22.3370    3.1430    3.8390 H       2  LIG2        0.0268
     36    H       25.0360    1.2990    3.0870 H       2  LIG2        0.0233
     37    H       23.7430    0.6900    4.1090 H       2  LIG2        0.0233
     38    H       25.3770    0.8070    4.7450 H       2  LIG2        0.0233
     39    H       26.3970    5.4880    2.1570 H       2  LIG2        0.0257
     40    H       26.3510    7.2250    2.2120 H       2  LIG2        0.0257
     41    H       24.8640    6.3180    2.1060 H       2  LIG2        0.0257
     42    H       25.1780    7.7030    5.3550 H       2  LIG2        0.2102
@<TRIPOS>BOND
     1    32    13    1
     2    41    16    1
     3    39    16    1
     4    40    16    1
     5    16     9    1
     6    34    14    1
     7    17     2    1
     8    33    13    1
     9    13    31    1
    10    13     3    1
    11    18     4    1
    12    36    15    1
    13    25    10    1
    14     2     4    1
    15     2     3    1
    16     2     5    1
    17    14    35    1
    18    14    10    1
    19    14     8    1
    20     4     3    1
    21     4     7    1
    22     3    12    1
    23    15    37    1
    24    15     8    1
    25    15    38    1
    26     9     1    1
    27     9     6    1
    28     9    11    1
    29    27    11    1
    30    10     6    1
    31    10    24    1
    32     1    42    1
    33     8     5    1
    34     8    23    1
    35     6     5    1
    36     6    20    1
    37    11     7    1
    38    11    26    1
    39     5    19    1
    40     7    22    1
    41     7    21    1
    42    12    29    1
    43    12    28    1
    44    12    30    1
