@<TRIPOS>MOLECULE
11996452_9_run_19.pdb
 42 44 0 0 0
SMALL
GASTEIGER

@<TRIPOS>ATOM
      1    O       28.9080    4.4970    4.1050 O.3     2  LIG2       -0.3886
      2    C       25.9960    4.4440    3.3830 C.3     2  LIG2       -0.0289
      3    C       24.7580    5.0470    4.0630 C.3     2  LIG2       -0.0284
      4    C       26.0600    4.9340    4.8320 C.3     2  LIG2       -0.0319
      5    C       26.3450    2.9510    3.0600 C.3     2  LIG2       -0.0294
      6    C       27.7940    2.4810    3.4200 C.3     2  LIG2       -0.0090
      7    C       26.3660    3.8810    5.9190 C.3     2  LIG2       -0.0468
      8    C       25.3750    1.7850    3.4130 C.3     2  LIG2       -0.0404
      9    C       28.5820    3.1990    4.5810 C.3     2  LIG2        0.0664
     10    C       27.6690    0.9460    3.5250 C.3     2  LIG2       -0.0471
     11    C       27.8280    3.3800    5.9360 C.3     2  LIG2       -0.0237
     12    C       24.3660    6.4560    3.5750 C.3     2  LIG2       -0.0593
     13    C       23.5140    4.2640    4.5470 C.3     2  LIG2       -0.0593
     14    C       26.2490    0.6660    3.9990 C.3     2  LIG2       -0.0498
     15    C       24.4970    1.3210    2.2340 C.3     2  LIG2       -0.0621
     16    C       29.9670    2.5610    4.8520 C.3     2  LIG2       -0.0358
     17    H       26.5000    5.0870    2.6590 H       2  LIG2        0.0312
     18    H       26.5740    5.8720    5.0420 H       2  LIG2        0.0309
     19    H       26.3530    2.9580    1.9670 H       2  LIG2        0.0310
     20    H       28.4030    2.6510    2.5280 H       2  LIG2        0.0331
     21    H       26.1260    4.3060    6.8950 H       2  LIG2        0.0269
     22    H       25.7230    3.0120    5.8370 H       2  LIG2        0.0269
     23    H       24.6950    2.0500    4.2050 H       2  LIG2        0.0301
     24    H       27.8250    0.4950    2.5420 H       2  LIG2        0.0269
     25    H       28.3920    0.4830    4.1930 H       2  LIG2        0.0269
     26    H       28.4120    4.0400    6.5820 H       2  LIG2        0.0293
     27    H       27.8230    2.4200    6.4550 H       2  LIG2        0.0293
     28    H       23.8490    7.0160    4.3550 H       2  LIG2        0.0235
     29    H       23.7050    6.3980    2.7100 H       2  LIG2        0.0235
     30    H       25.2340    7.0480    3.2790 H       2  LIG2        0.0235
     31    H       22.8070    4.9350    5.0370 H       2  LIG2        0.0235
     32    H       23.7110    3.4940    5.2860 H       2  LIG2        0.0235
     33    H       22.9890    3.8110    3.7060 H       2  LIG2        0.0235
     34    H       26.2100    0.6870    5.0900 H       2  LIG2        0.0268
     35    H       25.9220   -0.3290    3.6930 H       2  LIG2        0.0268
     36    H       25.1030    0.9440    1.4090 H       2  LIG2        0.0233
     37    H       23.8900    2.1430    1.8540 H       2  LIG2        0.0233
     38    H       23.8180    0.5240    2.5370 H       2  LIG2        0.0233
     39    H       29.8830    1.6020    5.3630 H       2  LIG2        0.0257
     40    H       30.5880    3.1920    5.4900 H       2  LIG2        0.0257
     41    H       30.5220    2.3930    3.9270 H       2  LIG2        0.0257
     42    H       29.5710    4.4110    3.4170 H       2  LIG2        0.2102
@<TRIPOS>BOND
     1    36    15    1
     2    37    15    1
     3    19     5    1
     4    15    38    1
     5    15     8    1
     6    20     6    1
     7    24    10    1
     8    17     2    1
     9    29    12    1
    10     5     2    1
    11     5     8    1
    12     5     6    1
    13    30    12    1
    14     2     3    1
    15     2     4    1
    16     8    14    1
    17     8    23    1
    18    42     1    1
    19     6    10    1
    20     6     9    1
    21    10    14    1
    22    10    25    1
    23    12     3    1
    24    12    28    1
    25    35    14    1
    26    33    13    1
    27    41    16    1
    28    14    34    1
    29     3    13    1
    30     3     4    1
    31     1     9    1
    32    13    31    1
    33    13    32    1
    34     9    16    1
    35     9    11    1
    36     4    18    1
    37     4     7    1
    38    16    39    1
    39    16    40    1
    40    22     7    1
    41     7    11    1
    42     7    21    1
    43    11    27    1
    44    11    26    1
@<TRIPOS>MOLECULE
11996452_9_run_3.pdb
 42 44 0 0 0
SMALL
GASTEIGER

@<TRIPOS>ATOM
      1    O       25.3390   -0.0300    4.3550 O.3     2  LIG2       -0.3886
      2    C       25.9420    2.8840    4.7450 C.3     2  LIG2       -0.0289
      3    C       25.5720    4.1270    3.9250 C.3     2  LIG2       -0.0284
      4    C       25.4310    2.7500    3.3080 C.3     2  LIG2       -0.0319
      5    C       27.3490    2.3010    5.1180 C.3     2  LIG2       -0.0294
      6    C       27.5360    0.7590    4.9280 C.3     2  LIG2       -0.0090
      7    C       26.3950    2.1330    2.2720 C.3     2  LIG2       -0.0468
      8    C       28.6700    2.9900    4.6670 C.3     2  LIG2       -0.0404
      9    C       26.6690   -0.0070    3.8560 C.3     2  LIG2        0.0664
     10    C       29.0660    0.5820    4.8220 C.3     2  LIG2       -0.0471
     11    C       26.6140    0.6100    2.4230 C.3     2  LIG2       -0.0237
     12    C       24.2670    4.8280    4.3540 C.3     2  LIG2       -0.0593
     13    C       26.5660    5.1420    3.3100 C.3     2  LIG2       -0.0593
     14    C       29.5990    1.8630    4.1940 C.3     2  LIG2       -0.0498
     15    C       29.3040    3.8930    5.7440 C.3     2  LIG2       -0.0621
     16    C       27.0350   -1.5080    3.7490 C.3     2  LIG2       -0.0358
     17    H       25.2260    2.5930    5.5160 H       2  LIG2        0.0312
     18    H       24.4100    2.3990    3.1500 H       2  LIG2        0.0309
     19    H       27.3540    2.4170    6.2040 H       2  LIG2        0.0310
     20    H       27.2660    0.2960    5.8810 H       2  LIG2        0.0331
     21    H       26.0090    2.3370    1.2720 H       2  LIG2        0.0269
     22    H       27.3690    2.6080    2.2880 H       2  LIG2        0.0269
     23    H       28.5260    3.6140    3.8020 H       2  LIG2        0.0301
     24    H       29.4930    0.4570    5.8200 H       2  LIG2        0.0269
     25    H       29.3780   -0.2850    4.2430 H       2  LIG2        0.0269
     26    H       25.8490    0.0910    1.8420 H       2  LIG2        0.0293
     27    H       27.5520    0.3780    1.9150 H       2  LIG2        0.0293
     28    H       23.8030    5.3490    3.5160 H       2  LIG2        0.0235
     29    H       24.4580    5.5590    5.1390 H       2  LIG2        0.0235
     30    H       23.5270    4.1240    4.7400 H       2  LIG2        0.0235
     31    H       26.0330    5.9020    2.7380 H       2  LIG2        0.0235
     32    H       27.2760    4.7230    2.6050 H       2  LIG2        0.0235
     33    H       27.1200    5.6640    4.0910 H       2  LIG2        0.0235
     34    H       29.5720    1.7830    3.1050 H       2  LIG2        0.0268
     35    H       30.6420    2.0310    4.4690 H       2  LIG2        0.0268
     36    H       29.5720    3.3240    6.6360 H       2  LIG2        0.0233
     37    H       28.6150    4.6820    6.0470 H       2  LIG2        0.0233
     38    H       30.2100    4.3730    5.3730 H       2  LIG2        0.0233
     39    H       27.9860   -1.6620    3.2390 H       2  LIG2        0.0257
     40    H       26.2910   -2.0680    3.1790 H       2  LIG2        0.0257
     41    H       27.1080   -1.9770    4.7310 H       2  LIG2        0.0257
     42    H       25.3620   -0.3230    5.2690 H       2  LIG2        0.2102
@<TRIPOS>BOND
     1    21     7    1
     2    26    11    1
     3    27    11    1
     4     7    22    1
     5     7    11    1
     6     7     4    1
     7    11     9    1
     8    32    13    1
     9    31    13    1
    10    34    14    1
    11    18     4    1
    12    40    16    1
    13    39    16    1
    14     4     3    1
    15     4     2    1
    16    13     3    1
    17    13    33    1
    18    28    12    1
    19    16     9    1
    20    16    41    1
    21    23     8    1
    22     9     1    1
    23     9     6    1
    24     3    12    1
    25     3     2    1
    26    14    35    1
    27    14     8    1
    28    14    10    1
    29    25    10    1
    30    12    30    1
    31    12    29    1
    32     1    42    1
    33     8     5    1
    34     8    15    1
    35     2     5    1
    36     2    17    1
    37    10     6    1
    38    10    24    1
    39     6     5    1
    40     6    20    1
    41     5    19    1
    42    38    15    1
    43    15    37    1
    44    15    36    1
@<TRIPOS>MOLECULE
11996452_9_run_11.pdb
 42 44 0 0 0
SMALL
GASTEIGER

@<TRIPOS>ATOM
      1    O       30.0200    1.2560    2.8700 O.3     2  LIG2       -0.3886
      2    C       27.7500    3.1510    3.3840 C.3     2  LIG2       -0.0289
      3    C       27.5560    4.2610    4.4260 C.3     2  LIG2       -0.0284
      4    C       28.6530    3.2330    4.6180 C.3     2  LIG2       -0.0319
      5    C       26.9160    1.8490    3.1270 C.3     2  LIG2       -0.0294
      6    C       27.7310    0.5270    2.9300 C.3     2  LIG2       -0.0090
      7    C       28.6030    2.0490    5.6080 C.3     2  LIG2       -0.0468
      8    C       25.6570    1.4990    3.9740 C.3     2  LIG2       -0.0404
      9    C       29.1580    0.3840    3.5860 C.3     2  LIG2        0.0664
     10    C       26.7130   -0.5870    3.2570 C.3     2  LIG2       -0.0471
     11    C       29.2780    0.7540    5.0980 C.3     2  LIG2       -0.0237
     12    C       28.0000    5.6670    3.9720 C.3     2  LIG2       -0.0593
     13    C       26.4050    4.3520    5.4560 C.3     2  LIG2       -0.0593
     14    C       25.7580   -0.0010    4.2890 C.3     2  LIG2       -0.0498
     15    C       24.3240    1.8950    3.3080 C.3     2  LIG2       -0.0621
     16    C       29.7890   -1.0110    3.3540 C.3     2  LIG2       -0.0358
     17    H       28.2240    3.4550    2.4480 H       2  LIG2        0.0312
     18    H       29.6750    3.5940    4.4920 H       2  LIG2        0.0309
     19    H       26.5120    2.0390    2.1300 H       2  LIG2        0.0310
     20    H       27.9120    0.4340    1.8560 H       2  LIG2        0.0331
     21    H       29.0810    2.3530    6.5400 H       2  LIG2        0.0269
     22    H       27.5880    1.7990    5.8930 H       2  LIG2        0.0269
     23    H       25.6670    1.9860    4.9340 H       2  LIG2        0.0301
     24    H       26.1600   -0.8570    2.3550 H       2  LIG2        0.0269
     25    H       27.1600   -1.5060    3.6300 H       2  LIG2        0.0269
     26    H       30.3350    0.7840    5.3740 H       2  LIG2        0.0293
     27    H       28.8620   -0.0660    5.6850 H       2  LIG2        0.0293
     28    H       28.3030    6.2800    4.8220 H       2  LIG2        0.0235
     29    H       27.1910    6.1830    3.4580 H       2  LIG2        0.0235
     30    H       28.8490    5.6310    3.2870 H       2  LIG2        0.0235
     31    H       26.5390    5.2190    6.1050 H       2  LIG2        0.0235
     32    H       26.3290    3.5130    6.1390 H       2  LIG2        0.0235
     33    H       25.4450    4.4790    4.9540 H       2  LIG2        0.0235
     34    H       26.1580   -0.1510    5.2940 H       2  LIG2        0.0268
     35    H       24.7910   -0.5050    4.2590 H       2  LIG2        0.0268
     36    H       24.1810    1.3740    2.3600 H       2  LIG2        0.0233
     37    H       24.2920    2.9670    3.1080 H       2  LIG2        0.0233
     38    H       23.4760    1.6550    3.9490 H       2  LIG2        0.0233
     39    H       29.3170   -1.7810    3.9660 H       2  LIG2        0.0257
     40    H       30.8490   -1.0260    3.6120 H       2  LIG2        0.0257
     41    H       29.7060   -1.3230    2.3120 H       2  LIG2        0.0257
     42    H       30.9220    1.0950    3.1560 H       2  LIG2        0.2102
@<TRIPOS>BOND
     1    20     6    1
     2    19     5    1
     3    41    16    1
     4    24    10    1
     5    36    15    1
     6    17     2    1
     7     1    42    1
     8     1     9    1
     9     6     5    1
    10     6    10    1
    11     6     9    1
    12    37    15    1
    13     5     2    1
    14     5     8    1
    15    10    25    1
    16    10    14    1
    17    30    12    1
    18    15    38    1
    19    15     8    1
    20    16     9    1
    21    16    40    1
    22    16    39    1
    23     2     3    1
    24     2     4    1
    25    29    12    1
    26     9    11    1
    27    12     3    1
    28    12    28    1
    29     8    14    1
    30     8    23    1
    31    35    14    1
    32    14    34    1
    33     3     4    1
    34     3    13    1
    35    18     4    1
    36     4     7    1
    37    33    13    1
    38    11    26    1
    39    11     7    1
    40    11    27    1
    41    13    31    1
    42    13    32    1
    43     7    22    1
    44     7    21    1
@<TRIPOS>MOLECULE
11996452_9_run_3.pdb
 42 44 0 0 0
SMALL
GASTEIGER

@<TRIPOS>ATOM
      1    O       28.0660    5.2560    5.5710 O.3     2  LIG2       -0.3886
      2    C       27.5150    2.3390    5.1280 C.3     2  LIG2       -0.0289
      3    C       28.2560    1.2660    4.3180 C.3     2  LIG2       -0.0284
      4    C       28.5620    2.7310    4.0830 C.3     2  LIG2       -0.0319
      5    C       26.0500    2.8780    4.9880 C.3     2  LIG2       -0.0294
      6    C       25.8730    4.4330    5.0270 C.3     2  LIG2       -0.0090
      7    C       28.0770    3.5620    2.8760 C.3     2  LIG2       -0.0468
      8    C       25.0690    2.3250    3.9120 C.3     2  LIG2       -0.0404
      9    C       27.0610    5.3660    4.5730 C.3     2  LIG2        0.0664
     10    C       24.5150    4.6690    4.3350 C.3     2  LIG2       -0.0471
     11    C       27.7320    5.0330    3.2030 C.3     2  LIG2       -0.0237
     12    C       29.3060    0.4590    5.1100 C.3     2  LIG2       -0.0593
     13    C       27.6580    0.4160    3.1720 C.3     2  LIG2       -0.0593
     14    C       24.3570    3.5480    3.3160 C.3     2  LIG2       -0.0498
     15    C       24.0990    1.2510    4.4430 C.3     2  LIG2       -0.0621
     16    C       26.6900    6.8690    4.6050 C.3     2  LIG2       -0.0358
     17    H       27.8350    2.4570    6.1650 H       2  LIG2        0.0312
     18    H       29.5380    3.0780    4.4280 H       2  LIG2        0.0309
     19    H       25.6060    2.5570    5.9330 H       2  LIG2        0.0310
     20    H       25.7030    4.6970    6.0750 H       2  LIG2        0.0331
     21    H       28.8490    3.5430    2.1050 H       2  LIG2        0.0269
     22    H       27.2090    3.1200    2.4000 H       2  LIG2        0.0269
     23    H       25.5900    1.8750    3.0840 H       2  LIG2        0.0301
     24    H       23.7100    4.6130    5.0710 H       2  LIG2        0.0269
     25    H       24.4210    5.6390    3.8510 H       2  LIG2        0.0269
     26    H       28.6390    5.6330    3.0970 H       2  LIG2        0.0293
     27    H       27.0750    5.3840    2.4060 H       2  LIG2        0.0293
     28    H       30.1000    0.0960    4.4570 H       2  LIG2        0.0235
     29    H       28.8490   -0.4020    5.5950 H       2  LIG2        0.0235
     30    H       29.7820    1.0560    5.8900 H       2  LIG2        0.0235
     31    H       28.4200   -0.2350    2.7400 H       2  LIG2        0.0235
     32    H       27.2780    0.9810    2.3270 H       2  LIG2        0.0235
     33    H       26.8620   -0.2310    3.5420 H       2  LIG2        0.0235
     34    H       24.8240    3.8340    2.3710 H       2  LIG2        0.0268
     35    H       23.3030    3.3590    3.1000 H       2  LIG2        0.0268
     36    H       23.4590    1.6460    5.2330 H       2  LIG2        0.0233
     37    H       24.6450    0.4000    4.8510 H       2  LIG2        0.0233
     38    H       23.4530    0.8760    3.6490 H       2  LIG2        0.0233
     39    H       26.0250    7.1440    3.7860 H       2  LIG2        0.0257
     40    H       27.5710    7.5070    4.5080 H       2  LIG2        0.0257
     41    H       26.1950    7.1430    5.5370 H       2  LIG2        0.0257
     42    H       27.7020    5.5640    6.4030 H       2  LIG2        0.2102
@<TRIPOS>BOND
     1    21     7    1
     2    32    13    1
     3    34    14    1
     4    22     7    1
     5    27    11    1
     6    31    13    1
     7     7    11    1
     8     7     4    1
     9    23     8    1
    10    26    11    1
    11    35    14    1
    12    13    33    1
    13    13     3    1
    14    11     9    1
    15    14     8    1
    16    14    10    1
    17    38    15    1
    18    39    16    1
    19    25    10    1
    20     8    15    1
    21     8     5    1
    22     4     3    1
    23     4    18    1
    24     4     2    1
    25     3    12    1
    26     3     2    1
    27    10     6    1
    28    10    24    1
    29    15    37    1
    30    15    36    1
    31    28    12    1
    32    40    16    1
    33     9    16    1
    34     9     6    1
    35     9     1    1
    36    16    41    1
    37     5     6    1
    38     5     2    1
    39     5    19    1
    40     6    20    1
    41    12    29    1
    42    12    30    1
    43     2    17    1
    44     1    42    1
@<TRIPOS>MOLECULE
11996452_9_run_8.pdb
 42 44 0 0 0
SMALL
GASTEIGER

@<TRIPOS>ATOM
      1    O       24.8040    2.6430    2.1380 O.3     2  LIG2       -0.3886
      2    C       27.5010    1.5500    2.8680 C.3     2  LIG2       -0.0289
      3    C       27.9740    0.1310    3.2160 C.3     2  LIG2       -0.0284
      4    C       26.4940    0.4550    3.2280 C.3     2  LIG2       -0.0319
      5    C       27.5430    2.8650    3.7190 C.3     2  LIG2       -0.0294
      6    C       26.2350    3.7250    3.7380 C.3     2  LIG2       -0.0090
      7    C       25.6380    0.6730    4.4950 C.3     2  LIG2       -0.0468
      8    C       28.1410    2.8970    5.1570 C.3     2  LIG2       -0.0404
      9    C       24.8390    3.0280    3.5040 C.3     2  LIG2        0.0664
     10    C       26.3690    4.5760    5.0180 C.3     2  LIG2       -0.0471
     11    C       24.5400    1.7520    4.3520 C.3     2  LIG2       -0.0237
     12    C       28.4900   -0.6970    2.0210 C.3     2  LIG2       -0.0593
     13    C       28.6730   -0.3000    4.5270 C.3     2  LIG2       -0.0593
     14    C       27.1750    3.7380    6.0030 C.3     2  LIG2       -0.0498
     15    C       29.5990    3.3940    5.2170 C.3     2  LIG2       -0.0621
     16    C       23.6490    4.0110    3.6290 C.3     2  LIG2       -0.0358
     17    H       27.5320    1.8150    1.8100 H       2  LIG2        0.0312
     18    H       25.9000    0.0110    2.4280 H       2  LIG2        0.0309
     19    H       28.2330    3.4810    3.1380 H       2  LIG2        0.0310
     20    H       26.3250    4.4400    2.9150 H       2  LIG2        0.0331
     21    H       25.1700   -0.2740    4.7670 H       2  LIG2        0.0269
     22    H       26.2430    0.9330    5.3550 H       2  LIG2        0.0269
     23    H       28.1390    1.9230    5.6170 H       2  LIG2        0.0301
     24    H       26.9080    5.4990    4.7930 H       2  LIG2        0.0269
     25    H       25.4200    4.8740    5.4590 H       2  LIG2        0.0269
     26    H       23.6340    1.2750    3.9690 H       2  LIG2        0.0293
     27    H       24.2790    2.0670    5.3640 H       2  LIG2        0.0293
     28    H       28.3490   -1.7650    2.1890 H       2  LIG2        0.0235
     29    H       29.5520   -0.5200    1.8550 H       2  LIG2        0.0235
     30    H       27.9710   -0.4490    1.0920 H       2  LIG2        0.0235
     31    H       28.8570   -1.3750    4.5280 H       2  LIG2        0.0235
     32    H       28.1040   -0.1230    5.4340 H       2  LIG2        0.0235
     33    H       29.6440    0.1860    4.6270 H       2  LIG2        0.0235
     34    H       26.5070    3.0890    6.5730 H       2  LIG2        0.0268
     35    H       27.6890    4.3720    6.7270 H       2  LIG2        0.0268
     36    H       29.6870    4.4180    4.8520 H       2  LIG2        0.0233
     37    H       30.2510    2.7660    4.6100 H       2  LIG2        0.0233
     38    H       29.9810    3.3720    6.2380 H       2  LIG2        0.0233
     39    H       23.4530    4.2880    4.6650 H       2  LIG2        0.0257
     40    H       22.7220    3.5770    3.2510 H       2  LIG2        0.0257
     41    H       23.8250    4.9310    3.0700 H       2  LIG2        0.0257
     42    H       24.0150    2.1170    1.9900 H       2  LIG2        0.2102
@<TRIPOS>BOND
     1    30    12    1
     2    17     2    1
     3    29    12    1
     4    42     1    1
     5    12    28    1
     6    12     3    1
     7     1     9    1
     8    18     4    1
     9     2     3    1
    10     2     4    1
    11     2     5    1
    12    20     6    1
    13    41    16    1
    14    19     5    1
    15     3     4    1
    16     3    13    1
    17     4     7    1
    18    40    16    1
    19     9    16    1
    20     9     6    1
    21     9    11    1
    22    16    39    1
    23     5     6    1
    24     5     8    1
    25     6    10    1
    26    26    11    1
    27    11     7    1
    28    11    27    1
    29     7    21    1
    30     7    22    1
    31    13    31    1
    32    13    33    1
    33    13    32    1
    34    37    15    1
    35    24    10    1
    36    36    15    1
    37    10    25    1
    38    10    14    1
    39     8    15    1
    40     8    23    1
    41     8    14    1
    42    15    38    1
    43    14    34    1
    44    14    35    1
@<TRIPOS>MOLECULE
11996452_9_run_8.pdb
 42 44 0 0 0
SMALL
GASTEIGER

@<TRIPOS>ATOM
      1    O       25.2990    6.0310    5.3540 O.3     2  LIG2       -0.3886
      2    C       27.0630    3.6070    5.4740 C.3     2  LIG2       -0.0289
      3    C       28.5570    3.4080    5.1770 C.3     2  LIG2       -0.0284
      4    C       27.8550    4.6630    4.6980 C.3     2  LIG2       -0.0319
      5    C       25.8050    2.9490    4.8100 C.3     2  LIG2       -0.0294
      6    C       24.6320    3.9140    4.4330 C.3     2  LIG2       -0.0090
      7    C       27.4190    4.9440    3.2440 C.3     2  LIG2       -0.0468
      8    C       25.9320    1.9000    3.6660 C.3     2  LIG2       -0.0404
      9    C       24.9370    5.4290    4.1200 C.3     2  LIG2        0.0664
     10    C       23.8460    3.1370    3.3550 C.3     2  LIG2       -0.0471
     11    C       26.0900    5.7200    3.1080 C.3     2  LIG2       -0.0237
     12    C       29.4910    3.5610    6.3950 C.3     2  LIG2       -0.0593
     13    C       29.1560    2.4260    4.1420 C.3     2  LIG2       -0.0593
     14    C       24.8660    2.2730    2.6260 C.3     2  LIG2       -0.0498
     15    C       25.8360    0.4380    4.1440 C.3     2  LIG2       -0.0621
     16    C       23.6760    6.2200    3.6940 C.3     2  LIG2       -0.0358
     17    H       26.8160    3.8810    6.5010 H       2  LIG2        0.0312
     18    H       28.1270    5.5880    5.2090 H       2  LIG2        0.0309
     19    H       25.3920    2.3740    5.6430 H       2  LIG2        0.0310
     20    H       23.9650    3.9420    5.2990 H       2  LIG2        0.0331
     21    H       28.2100    5.5060    2.7450 H       2  LIG2        0.0269
     22    H       27.3280    4.0320    2.6640 H       2  LIG2        0.0269
     23    H       26.8710    1.9830    3.1450 H       2  LIG2        0.0301
     24    H       23.0980    2.5000    3.8310 H       2  LIG2        0.0269
     25    H       23.3090    3.7690    2.6500 H       2  LIG2        0.0269
     26    H       26.3110    6.7900    3.1200 H       2  LIG2        0.0293
     27    H       25.7170    5.5270    2.1000 H       2  LIG2        0.0293
     28    H       30.4840    3.8930    6.0920 H       2  LIG2        0.0235
     29    H       29.5990    2.6140    6.9230 H       2  LIG2        0.0235
     30    H       29.1150    4.2910    7.1140 H       2  LIG2        0.0235
     31    H       30.2420    2.5250    4.1040 H       2  LIG2        0.0235
     32    H       28.8360    2.5820    3.1170 H       2  LIG2        0.0235
     33    H       28.9430    1.3930    4.4180 H       2  LIG2        0.0235
     34    H       25.3170    2.8390    1.8080 H       2  LIG2        0.0268
     35    H       24.3900    1.3990    2.1760 H       2  LIG2        0.0268
     36    H       24.8710    0.2320    4.6090 H       2  LIG2        0.0233
     37    H       26.6130    0.2140    4.8750 H       2  LIG2        0.0233
     38    H       25.9570   -0.2570    3.3130 H       2  LIG2        0.0233
     39    H       23.3570    5.9690    2.6820 H       2  LIG2        0.0257
     40    H       23.8510    7.2980    3.6970 H       2  LIG2        0.0257
     41    H       22.8340    6.0280    4.3610 H       2  LIG2        0.0257
     42    H       25.5880    6.9300    5.1810 H       2  LIG2        0.2102
@<TRIPOS>BOND
     1    34    14    1
     2    27    11    1
     3    35    14    1
     4    14    10    1
     5    14     8    1
     6    25    10    1
     7    22     7    1
     8    39    16    1
     9    21     7    1
    10    11    26    1
    11    11     7    1
    12    11     9    1
    13    32    13    1
    14    23     8    1
    15     7     4    1
    16    38    15    1
    17    10    24    1
    18    10     6    1
    19     8    15    1
    20     8     5    1
    21    16    40    1
    22    16     9    1
    23    16    41    1
    24    31    13    1
    25     9     6    1
    26     9     1    1
    27    13    33    1
    28    13     3    1
    29    15    36    1
    30    15    37    1
    31     6     5    1
    32     6    20    1
    33     4     3    1
    34     4    18    1
    35     4     2    1
    36     5     2    1
    37     5    19    1
    38     3     2    1
    39     3    12    1
    40    42     1    1
    41     2    17    1
    42    28    12    1
    43    12    29    1
    44    12    30    1
@<TRIPOS>MOLECULE
11996452_9_run_16.pdb
 42 44 0 0 0
SMALL
GASTEIGER

@<TRIPOS>ATOM
      1    O       27.8490    1.8710    6.7210 O.3     2  LIG2       -0.3886
      2    C       27.1820    0.1160    4.3800 C.3     2  LIG2       -0.0289
      3    C       28.0250   -0.8820    3.5720 C.3     2  LIG2       -0.0284
      4    C       28.7100    0.1220    4.4780 C.3     2  LIG2       -0.0319
      5    C       26.4360    1.4150    3.9190 C.3     2  LIG2       -0.0294
      6    C       26.6250    2.6820    4.8190 C.3     2  LIG2       -0.0090
      7    C       29.4420    1.3970    4.0060 C.3     2  LIG2       -0.0468
      8    C       26.4510    1.8890    2.4360 C.3     2  LIG2       -0.0404
      9    C       27.9340    2.8380    5.6850 C.3     2  LIG2        0.0664
     10    C       26.2830    3.8570    3.8780 C.3     2  LIG2       -0.0471
     11    C       29.2940    2.6110    4.9510 C.3     2  LIG2       -0.0237
     12    C       27.9700   -2.3390    4.0730 C.3     2  LIG2       -0.0593
     13    C       28.2780   -0.8320    2.0460 C.3     2  LIG2       -0.0593
     14    C       26.6750    3.4080    2.4770 C.3     2  LIG2       -0.0498
     15    C       25.2000    1.4770    1.6350 C.3     2  LIG2       -0.0621
     16    C       27.9900    4.1810    6.4540 C.3     2  LIG2       -0.0358
     17    H       26.6690   -0.2940    5.2520 H       2  LIG2        0.0312
     18    H       29.1760   -0.2850    5.3770 H       2  LIG2        0.0309
     19    H       25.3930    1.1430    4.0940 H       2  LIG2        0.0310
     20    H       25.8120    2.6640    5.5500 H       2  LIG2        0.0331
     21    H       30.5020    1.1680    3.8880 H       2  LIG2        0.0269
     22    H       29.1200    1.7090    3.0190 H       2  LIG2        0.0269
     23    H       27.2950    1.4970    1.8950 H       2  LIG2        0.0301
     24    H       25.2110    4.0580    3.9130 H       2  LIG2        0.0269
     25    H       26.7800    4.7920    4.1310 H       2  LIG2        0.0269
     26    H       30.0950    2.5720    5.6930 H       2  LIG2        0.0293
     27    H       29.5130    3.4990    4.3550 H       2  LIG2        0.0293
     28    H       28.8860   -2.8770    3.8260 H       2  LIG2        0.0235
     29    H       27.1350   -2.8740    3.6220 H       2  LIG2        0.0235
     30    H       27.8470   -2.4000    5.1560 H       2  LIG2        0.0235
     31    H       28.9510   -1.6350    1.7430 H       2  LIG2        0.0235
     32    H       28.7600    0.0720    1.6870 H       2  LIG2        0.0235
     33    H       27.3490   -0.9720    1.4930 H       2  LIG2        0.0235
     34    H       27.7260    3.6400    2.2920 H       2  LIG2        0.0268
     35    H       26.0990    3.9410    1.7180 H       2  LIG2        0.0268
     36    H       24.2920    1.9090    2.0610 H       2  LIG2        0.0233
     37    H       25.0820    0.3930    1.6270 H       2  LIG2        0.0233
     38    H       25.2680    1.8080    0.5990 H       2  LIG2        0.0233
     39    H       28.2030    5.0220    5.7940 H       2  LIG2        0.0257
     40    H       28.7750    4.1830    7.2110 H       2  LIG2        0.0257
     41    H       27.0490    4.3930    6.9630 H       2  LIG2        0.0257
     42    H       26.9720    1.9140    7.1070 H       2  LIG2        0.2102
@<TRIPOS>BOND
     1    38    15    1
     2    33    13    1
     3    37    15    1
     4    15    36    1
     5    15     8    1
     6    32    13    1
     7    35    14    1
     8    31    13    1
     9    23     8    1
    10    13     3    1
    11    34    14    1
    12     8    14    1
    13     8     5    1
    14    14    10    1
    15    22     7    1
    16     3    12    1
    17     3     2    1
    18     3     4    1
    19    29    12    1
    20    28    12    1
    21    10    24    1
    22    10    25    1
    23    10     6    1
    24    21     7    1
    25     5    19    1
    26     5     2    1
    27     5     6    1
    28     7     4    1
    29     7    11    1
    30    12    30    1
    31    27    11    1
    32     2     4    1
    33     2    17    1
    34     4    18    1
    35     6    20    1
    36     6     9    1
    37    11     9    1
    38    11    26    1
    39     9    16    1
    40     9     1    1
    41    39    16    1
    42    16    41    1
    43    16    40    1
    44     1    42    1
@<TRIPOS>MOLECULE
11996452_9_run_3.pdb
 42 44 0 0 0
SMALL
GASTEIGER

@<TRIPOS>ATOM
      1    O       26.6620    5.6550    2.6770 O.3     2  LIG2       -0.3886
      2    C       26.6430    2.6540    2.7230 C.3     2  LIG2       -0.0289
      3    C       25.4950    1.6360    2.7620 C.3     2  LIG2       -0.0284
      4    C       25.2230    3.0880    3.0970 C.3     2  LIG2       -0.0319
      5    C       27.8130    2.8970    3.7370 C.3     2  LIG2       -0.0294
      6    C       28.1000    4.3860    4.1250 C.3     2  LIG2       -0.0090
      7    C       25.0100    3.6530    4.5190 C.3     2  LIG2       -0.0468
      8    C       27.9750    2.0400    5.0270 C.3     2  LIG2       -0.0404
      9    C       26.9380    5.4500    4.0540 C.3     2  LIG2        0.0664
     10    C       28.8490    4.2800    5.4700 C.3     2  LIG2       -0.0471
     11    C       25.5910    5.0670    4.7440 C.3     2  LIG2       -0.0237
     12    C       25.0110    1.1430    1.3830 C.3     2  LIG2       -0.0593
     13    C       25.2790    0.5490    3.8430 C.3     2  LIG2       -0.0593
     14    C       28.3220    3.0250    6.1530 C.3     2  LIG2       -0.0498
     15    C       28.9900    0.8870    4.8890 C.3     2  LIG2       -0.0621
     16    C       27.3770    6.8530    4.5420 C.3     2  LIG2       -0.0358
     17    H       26.9700    2.9630    1.7290 H       2  LIG2        0.0312
     18    H       24.6400    3.6480    2.3640 H       2  LIG2        0.0309
     19    H       28.6840    2.6280    3.1360 H       2  LIG2        0.0310
     20    H       28.8490    4.7500    3.4160 H       2  LIG2        0.0331
     21    H       23.9400    3.6720    4.7300 H       2  LIG2        0.0269
     22    H       25.4240    3.0020    5.2810 H       2  LIG2        0.0269
     23    H       27.0470    1.5860    5.3300 H       2  LIG2        0.0301
     24    H       29.9210    4.1770    5.2880 H       2  LIG2        0.0269
     25    H       28.7300    5.1450    6.1190 H       2  LIG2        0.0269
     26    H       24.8300    5.8010    4.4690 H       2  LIG2        0.0293
     27    H       25.7130    5.1860    5.8220 H       2  LIG2        0.0293
     28    H       23.9630    0.8470    1.4140 H       2  LIG2        0.0235
     29    H       25.5940    0.2840    1.0510 H       2  LIG2        0.0235
     30    H       25.1030    1.9130    0.6140 H       2  LIG2        0.0235
     31    H       24.3590   -0.0050    3.6500 H       2  LIG2        0.0235
     32    H       25.1620    0.9210    4.8550 H       2  LIG2        0.0235
     33    H       26.0930   -0.1770    3.8320 H       2  LIG2        0.0235
     34    H       27.4290    3.2650    6.7340 H       2  LIG2        0.0268
     35    H       29.0540    2.6230    6.8550 H       2  LIG2        0.0268
     36    H       29.9910    1.2600    4.6700 H       2  LIG2        0.0233
     37    H       28.7030    0.2100    4.0840 H       2  LIG2        0.0233
     38    H       29.0480    0.3010    5.8060 H       2  LIG2        0.0233
     39    H       27.4870    6.8940    5.6260 H       2  LIG2        0.0257
     40    H       26.6460    7.6210    4.2830 H       2  LIG2        0.0257
     41    H       28.3300    7.1530    4.1030 H       2  LIG2        0.0257
     42    H       27.4790    5.8930    2.2340 H       2  LIG2        0.2102
@<TRIPOS>BOND
     1    30    12    1
     2    29    12    1
     3    12    28    1
     4    12     3    1
     5    17     2    1
     6    42     1    1
     7    18     4    1
     8     1     9    1
     9     2     3    1
    10     2     4    1
    11     2     5    1
    12     3     4    1
    13     3    13    1
    14     4     7    1
    15    19     5    1
    16    20     6    1
    17    31    13    1
    18     5     6    1
    19     5     8    1
    20    33    13    1
    21    13    32    1
    22     9     6    1
    23     9    16    1
    24     9    11    1
    25    37    15    1
    26    41    16    1
    27     6    10    1
    28    40    16    1
    29    26    11    1
    30     7    21    1
    31     7    11    1
    32     7    22    1
    33    16    39    1
    34    36    15    1
    35    11    27    1
    36    15     8    1
    37    15    38    1
    38     8    23    1
    39     8    14    1
    40    24    10    1
    41    10    25    1
    42    10    14    1
    43    14    34    1
    44    14    35    1
@<TRIPOS>MOLECULE
11996452_9_run_1.pdb
 42 44 0 0 0
SMALL
GASTEIGER

@<TRIPOS>ATOM
      1    O       28.4650    4.1030    3.7520 O.3     2  LIG2       -0.3886
      2    C       27.2290    1.5910    2.6710 C.3     2  LIG2       -0.0289
      3    C       25.7730    1.2140    2.3620 C.3     2  LIG2       -0.0284
      4    C       26.0700    2.4240    3.2250 C.3     2  LIG2       -0.0319
      5    C       28.2510    0.9400    3.6660 C.3     2  LIG2       -0.0294
      6    C       29.0620    1.9240    4.5740 C.3     2  LIG2       -0.0090
      7    C       25.9160    2.4860    4.7600 C.3     2  LIG2       -0.0468
      8    C       27.8800   -0.2970    4.5340 C.3     2  LIG2       -0.0404
      9    C       28.4490    3.3300    4.9430 C.3     2  LIG2        0.0664
     10    C       29.5180    1.0450    5.7570 C.3     2  LIG2       -0.0471
     11    C       26.9840    3.3400    5.4810 C.3     2  LIG2       -0.0237
     12    C       25.3200    1.4940    0.9140 C.3     2  LIG2       -0.0593
     13    C       24.9940    0.0190    2.9620 C.3     2  LIG2       -0.0593
     14    C       28.4420   -0.0190    5.9360 C.3     2  LIG2       -0.0498
     15    C       28.3500   -1.6410    3.9430 C.3     2  LIG2       -0.0621
     16    C       29.3490    4.1430    5.9070 C.3     2  LIG2       -0.0358
     17    H       27.7820    2.0590    1.8550 H       2  LIG2        0.0312
     18    H       25.8660    3.3960    2.7730 H       2  LIG2        0.0309
     19    H       29.0110    0.5570    2.9800 H       2  LIG2        0.0310
     20    H       29.9810    2.1600    4.0300 H       2  LIG2        0.0331
     21    H       24.9270    2.8820    4.9960 H       2  LIG2        0.0269
     22    H       25.9270    1.4990    5.2100 H       2  LIG2        0.0269
     23    H       26.8160   -0.3880    4.6740 H       2  LIG2        0.0301
     24    H       30.4700    0.5680    5.5170 H       2  LIG2        0.0269
     25    H       29.6730    1.5890    6.6860 H       2  LIG2        0.0269
     26    H       26.6290    4.3720    5.5250 H       2  LIG2        0.0293
     27    H       26.9990    3.0080    6.5200 H       2  LIG2        0.0293
     28    H       24.2470    1.6800    0.8650 H       2  LIG2        0.0235
     29    H       25.5440    0.6470    0.2670 H       2  LIG2        0.0235
     30    H       25.8160    2.3680    0.4870 H       2  LIG2        0.0235
     31    H       23.9640    0.0150    2.6050 H       2  LIG2        0.0235
     32    H       24.9040    0.0230    4.0440 H       2  LIG2        0.0235
     33    H       25.4390   -0.9270    2.6550 H       2  LIG2        0.0235
     34    H       27.6540    0.3560    6.5920 H       2  LIG2        0.0268
     35    H       28.8490   -0.9120    6.4130 H       2  LIG2        0.0268
     36    H       29.4360   -1.6780    3.8480 H       2  LIG2        0.0233
     37    H       27.9230   -1.8020    2.9520 H       2  LIG2        0.0233
     38    H       28.0440   -2.4770    4.5710 H       2  LIG2        0.0233
     39    H       29.3210    3.7490    6.9230 H       2  LIG2        0.0257
     40    H       29.0330    5.1850    5.9770 H       2  LIG2        0.0257
     41    H       30.3910    4.1430    5.5830 H       2  LIG2        0.0257
     42    H       29.3760    4.2000    3.4640 H       2  LIG2        0.2102
@<TRIPOS>BOND
     1    29    12    1
     2    30    12    1
     3    28    12    1
     4    12     3    1
     5    17     2    1
     6     3     2    1
     7     3    13    1
     8     3     4    1
     9    31    13    1
    10    33    13    1
    11     2     4    1
    12     2     5    1
    13    18     4    1
    14    37    15    1
    15    13    32    1
    16    19     5    1
    17     4     7    1
    18    42     1    1
    19     5     8    1
    20     5     6    1
    21     1     9    1
    22    36    15    1
    23    15     8    1
    24    15    38    1
    25    20     6    1
    26     8    23    1
    27     8    14    1
    28     6     9    1
    29     6    10    1
    30     7    21    1
    31     7    22    1
    32     7    11    1
    33     9    11    1
    34     9    16    1
    35    11    26    1
    36    11    27    1
    37    24    10    1
    38    41    16    1
    39    10    14    1
    40    10    25    1
    41    16    40    1
    42    16    39    1
    43    14    35    1
    44    14    34    1
@<TRIPOS>MOLECULE
11996452_9_run_5.pdb
 42 44 0 0 0
SMALL
GASTEIGER

@<TRIPOS>ATOM
      1    O       28.0990    4.4270    2.2070 O.3     2  LIG2       -0.3886
      2    C       28.5060    1.6070    3.1510 C.3     2  LIG2       -0.0289
      3    C       27.8380    0.2840    2.7500 C.3     2  LIG2       -0.0284
      4    C       27.1940    1.6000    2.3620 C.3     2  LIG2       -0.0319
      5    C       28.5630    2.3300    4.5400 C.3     2  LIG2       -0.0294
      6    C       28.2630    3.8670    4.5390 C.3     2  LIG2       -0.0090
      7    C       25.9580    2.2250    3.0440 C.3     2  LIG2       -0.0468
      8    C       27.8940    1.7260    5.8100 C.3     2  LIG2       -0.0404
      9    C       27.3480    4.4830    3.4110 C.3     2  LIG2        0.0664
     10    C       27.8480    4.1640    5.9950 C.3     2  LIG2       -0.0471
     11    C       25.9870    3.7680    3.1410 C.3     2  LIG2       -0.0237
     12    C       28.5520   -0.4930    1.6260 C.3     2  LIG2       -0.0593
     13    C       27.0900   -0.6820    3.7000 C.3     2  LIG2       -0.0593
     14    C       27.1910    2.8930    6.5180 C.3     2  LIG2       -0.0498
     15    C       28.8680    0.9550    6.7230 C.3     2  LIG2       -0.0621
     16    C       27.0960    5.9990    3.6040 C.3     2  LIG2       -0.0358
     17    H       29.3880    1.8880    2.5720 H       2  LIG2        0.0312
     18    H       27.2240    1.8530    1.3010 H       2  LIG2        0.0309
     19    H       29.6310    2.2890    4.7660 H       2  LIG2        0.0310
     20    H       29.2270    4.3690    4.4150 H       2  LIG2        0.0331
     21    H       25.0660    1.9220    2.4940 H       2  LIG2        0.0269
     22    H       25.8050    1.8360    4.0440 H       2  LIG2        0.0269
     23    H       27.1070    1.0350    5.5620 H       2  LIG2        0.0301
     24    H       28.7340    4.3920    6.5920 H       2  LIG2        0.0269
     25    H       27.1760    5.0130    6.1050 H       2  LIG2        0.0269
     26    H       25.5440    4.1800    2.2320 H       2  LIG2        0.0293
     27    H       25.2920    4.0430    3.9360 H       2  LIG2        0.0293
     28    H       27.8490   -1.1070    1.0620 H       2  LIG2        0.0235
     29    H       29.3190   -1.1510    2.0340 H       2  LIG2        0.0235
     30    H       29.0420    0.1710    0.9110 H       2  LIG2        0.0235
     31    H       26.6730   -1.5210    3.1420 H       2  LIG2        0.0235
     32    H       26.2380   -0.2530    4.2170 H       2  LIG2        0.0235
     33    H       27.7700   -1.1020    4.4410 H       2  LIG2        0.0235
     34    H       26.1260    2.8970    6.2730 H       2  LIG2        0.0268
     35    H       27.2620    2.8330    7.6050 H       2  LIG2        0.0268
     36    H       29.6590    1.6030    7.1020 H       2  LIG2        0.0233
     37    H       29.3390    0.1330    6.1840 H       2  LIG2        0.0233
     38    H       28.3490    0.5290    7.5820 H       2  LIG2        0.0233
     39    H       26.4010    6.1970    4.4200 H       2  LIG2        0.0257
     40    H       26.6580    6.4540    2.7150 H       2  LIG2        0.0257
     41    H       28.0200    6.5370    3.8200 H       2  LIG2        0.0257
     42    H       28.9570    4.8270    2.3650 H       2  LIG2        0.2102
@<TRIPOS>BOND
     1    30    12    1
     2    28    12    1
     3    18     4    1
     4    12    29    1
     5    12     3    1
     6     1    42    1
     7     1     9    1
     8    26    11    1
     9     4     3    1
    10     4     7    1
    11     4     2    1
    12    21     7    1
    13    17     2    1
    14    40    16    1
    15     3     2    1
    16     3    13    1
    17     7    11    1
    18     7    22    1
    19    11     9    1
    20    11    27    1
    21    31    13    1
    22     2     5    1
    23     9    16    1
    24     9     6    1
    25    16    41    1
    26    16    39    1
    27    13    32    1
    28    13    33    1
    29    20     6    1
    30     6     5    1
    31     6    10    1
    32     5    19    1
    33     5     8    1
    34    23     8    1
    35     8    14    1
    36     8    15    1
    37    10    25    1
    38    10    14    1
    39    10    24    1
    40    37    15    1
    41    34    14    1
    42    14    35    1
    43    15    36    1
    44    15    38    1
