@<TRIPOS>MOLECULE
11996452_8_run_10.pdb
 42 44 0 0 0
SMALL
GASTEIGER

@<TRIPOS>ATOM
      1    O       27.0190    5.8640    5.1050 O.3     2  LIG2       -0.3886
      2    C       27.5480    1.7860    3.3000 C.3     2  LIG2       -0.0289
      3    C       28.3810    0.5770    3.7110 C.3     2  LIG2       -0.0284
      4    C       28.8950    1.9620    4.0160 C.3     2  LIG2       -0.0319
      5    C       26.2390    2.2090    4.0270 C.3     2  LIG2       -0.0294
      6    C       26.1370    3.6560    4.6230 C.3     2  LIG2       -0.0090
      7    C       28.8850    2.6100    5.4120 C.3     2  LIG2       -0.0468
      8    C       24.9920    2.0170    3.1350 C.3     2  LIG2       -0.0404
      9    C       27.3820    4.6130    4.5380 C.3     2  LIG2        0.0664
     10    C       24.8090    4.2280    4.0770 C.3     2  LIG2       -0.0471
     11    C       28.6010    4.1260    5.3880 C.3     2  LIG2       -0.0237
     12    C       27.9390   -0.3750    4.8470 C.3     2  LIG2       -0.0593
     13    C       29.0790   -0.1880    2.5710 C.3     2  LIG2       -0.0593
     14    C       23.9680    3.0200    3.6700 C.3     2  LIG2       -0.0498
     15    C       24.4800    0.5660    3.0980 C.3     2  LIG2       -0.0621
     16    C       27.8240    5.0000    3.1010 C.3     2  LIG2       -0.0358
     17    H       27.5270    2.0420    2.2410 H       2  LIG2        0.0312
     18    H       29.7550    2.2970    3.4330 H       2  LIG2        0.0309
     19    H       26.0990    1.5540    4.8850 H       2  LIG2        0.0310
     20    H       25.9630    3.5290    5.6940 H       2  LIG2        0.0331
     21    H       28.1510    2.1400    6.0630 H       2  LIG2        0.0269
     22    H       29.8490    2.4340    5.8910 H       2  LIG2        0.0269
     23    H       25.2260    2.3190    2.1110 H       2  LIG2        0.0301
     24    H       24.2890    4.8300    4.8230 H       2  LIG2        0.0269
     25    H       24.9730    4.8700    3.2120 H       2  LIG2        0.0269
     26    H       28.4640    4.4140    6.4330 H       2  LIG2        0.0293
     27    H       29.5070    4.6430    5.0650 H       2  LIG2        0.0293
     28    H       28.7930   -0.9300    5.2370 H       2  LIG2        0.0235
     29    H       27.2160   -1.1020    4.4780 H       2  LIG2        0.0235
     30    H       27.4800    0.1200    5.6990 H       2  LIG2        0.0235
     31    H       29.9630   -0.7140    2.9350 H       2  LIG2        0.0235
     32    H       29.4030    0.4750    1.7690 H       2  LIG2        0.0235
     33    H       28.4080   -0.9270    2.1290 H       2  LIG2        0.0235
     34    H       23.2210    3.2860    2.9210 H       2  LIG2        0.0268
     35    H       23.4390    2.6130    4.5340 H       2  LIG2        0.0268
     36    H       24.2090    0.2090    4.0920 H       2  LIG2        0.0233
     37    H       25.2410   -0.1070    2.7000 H       2  LIG2        0.0233
     38    H       23.5990    0.4770    2.4620 H       2  LIG2        0.0233
     39    H       28.2390    4.1690    2.5390 H       2  LIG2        0.0257
     40    H       28.6020    5.7650    3.1150 H       2  LIG2        0.0257
     41    H       27.0040    5.4050    2.5080 H       2  LIG2        0.0257
     42    H       26.7960    5.7230    6.0280 H       2  LIG2        0.2102
@<TRIPOS>BOND
     1    32    13    1
     2    23     8    1
     3    33    13    1
     4    17     2    1
     5    38    15    1
     6    41    16    1
     7    39    16    1
     8    13    31    1
     9    13     3    1
    10    37    15    1
    11    34    14    1
    12    15     8    1
    13    15    36    1
    14    16    40    1
    15    16     9    1
    16     8    14    1
    17     8     5    1
    18    25    10    1
    19     2     3    1
    20     2     4    1
    21     2     5    1
    22    18     4    1
    23    14    10    1
    24    14    35    1
    25     3     4    1
    26     3    12    1
    27     4     7    1
    28     5     6    1
    29     5    19    1
    30    10     6    1
    31    10    24    1
    32    29    12    1
    33     9     6    1
    34     9     1    1
    35     9    11    1
    36     6    20    1
    37    12    28    1
    38    12    30    1
    39    27    11    1
    40     1    42    1
    41    11     7    1
    42    11    26    1
    43     7    22    1
    44     7    21    1
@<TRIPOS>MOLECULE
11996452_8_run_12.pdb
 42 44 0 0 0
SMALL
GASTEIGER

@<TRIPOS>ATOM
      1    O       26.5290   -1.0920    3.2400 O.3     2  LIG2       -0.3886
      2    C       26.9380    3.3620    3.6370 C.3     2  LIG2       -0.0289
      3    C       25.9210    4.4740    3.8700 C.3     2  LIG2       -0.0284
      4    C       25.5090    3.2510    3.0880 C.3     2  LIG2       -0.0319
      5    C       27.4030    2.3820    4.7530 C.3     2  LIG2       -0.0294
      6    C       27.2290    0.8400    4.5290 C.3     2  LIG2       -0.0090
      7    C       24.6160    2.1240    3.6370 C.3     2  LIG2       -0.0468
      8    C       28.8840    2.6020    5.1390 C.3     2  LIG2       -0.0404
      9    C       26.5230    0.3280    3.2200 C.3     2  LIG2        0.0664
     10    C       28.6140    0.2260    4.8320 C.3     2  LIG2       -0.0471
     11    C       25.0110    0.7210    3.1330 C.3     2  LIG2       -0.0237
     12    C       25.3270    4.7630    5.2680 C.3     2  LIG2       -0.0593
     13    C       26.1360    5.7710    3.0680 C.3     2  LIG2       -0.0593
     14    C       29.3490    1.2530    5.6900 C.3     2  LIG2       -0.0498
     15    C       29.0990    3.7770    6.1070 C.3     2  LIG2       -0.0621
     16    C       27.2620    0.6590    1.8950 C.3     2  LIG2       -0.0358
     17    H       27.7240    3.5480    2.9050 H       2  LIG2        0.0312
     18    H       25.3500    3.3940    2.0180 H       2  LIG2        0.0309
     19    H       26.8250    2.5900    5.6520 H       2  LIG2        0.0310
     20    H       26.5870    0.4880    5.3400 H       2  LIG2        0.0331
     21    H       24.6230    2.1060    4.7250 H       2  LIG2        0.0269
     22    H       23.5800    2.3260    3.3590 H       2  LIG2        0.0269
     23    H       29.4700    2.7950    4.2370 H       2  LIG2        0.0301
     24    H       28.5300   -0.7280    5.3530 H       2  LIG2        0.0269
     25    H       29.1790    0.0380    3.9200 H       2  LIG2        0.0269
     26    H       24.4110    0.0200    3.7180 H       2  LIG2        0.0293
     27    H       24.6600    0.6100    2.1050 H       2  LIG2        0.0293
     28    H       24.3870    5.3080    5.1800 H       2  LIG2        0.0235
     29    H       26.0090    5.3770    5.8550 H       2  LIG2        0.0235
     30    H       25.1120    3.8770    5.8600 H       2  LIG2        0.0235
     31    H       25.1970    6.3090    2.9310 H       2  LIG2        0.0235
     32    H       26.5470    5.5780    2.0760 H       2  LIG2        0.0235
     33    H       26.8310    6.4370    3.5820 H       2  LIG2        0.0235
     34    H       30.4300    1.1310    5.6230 H       2  LIG2        0.0268
     35    H       29.0700    1.1440    6.7400 H       2  LIG2        0.0268
     36    H       28.5530    3.6360    7.0410 H       2  LIG2        0.0233
     37    H       28.7620    4.7150    5.6650 H       2  LIG2        0.0233
     38    H       30.1550    3.8930    6.3550 H       2  LIG2        0.0233
     39    H       27.2640    1.7190    1.6560 H       2  LIG2        0.0257
     40    H       26.7930    0.1650    1.0430 H       2  LIG2        0.0257
     41    H       28.3030    0.3340    1.9070 H       2  LIG2        0.0257
     42    H       26.1000   -1.4060    2.4410 H       2  LIG2        0.2102
@<TRIPOS>BOND
     1    40    16    1
     2    39    16    1
     3    16    41    1
     4    16     9    1
     5    18     4    1
     6    32    13    1
     7    27    11    1
     8    42     1    1
     9    17     2    1
    10    31    13    1
    11    13    33    1
    12    13     3    1
    13     4     2    1
    14     4     7    1
    15     4     3    1
    16    11     9    1
    17    11     7    1
    18    11    26    1
    19     9     1    1
    20     9     6    1
    21    22     7    1
    22     2     3    1
    23     2     5    1
    24     7    21    1
    25     3    12    1
    26    25    10    1
    27    23     8    1
    28     6     5    1
    29     6    10    1
    30     6    20    1
    31     5     8    1
    32     5    19    1
    33    10    24    1
    34    10    14    1
    35     8    14    1
    36     8    15    1
    37    28    12    1
    38    12    29    1
    39    12    30    1
    40    34    14    1
    41    37    15    1
    42    14    35    1
    43    15    38    1
    44    15    36    1
@<TRIPOS>MOLECULE
11996452_8_run_6.pdb
 42 44 0 0 0
SMALL
GASTEIGER

@<TRIPOS>ATOM
      1    O       25.7660    4.3710    3.1630 O.3     2  LIG2       -0.3886
      2    C       27.0240    0.2210    4.3320 C.3     2  LIG2       -0.0289
      3    C       27.2920   -1.0420    3.5210 C.3     2  LIG2       -0.0284
      4    C       26.2460   -0.0660    3.0400 C.3     2  LIG2       -0.0319
      5    C       28.0030    1.4300    4.3770 C.3     2  LIG2       -0.0294
      6    C       27.4780    2.8470    3.9580 C.3     2  LIG2       -0.0090
      7    C       26.4340    0.9040    1.8600 C.3     2  LIG2       -0.0468
      8    C       28.6510    1.6010    5.7710 C.3     2  LIG2       -0.0404
      9    C       26.0040    2.9960    3.4320 C.3     2  LIG2        0.0664
     10    C       27.8790    3.7890    5.1160 C.3     2  LIG2       -0.0471
     11    C       25.7530    2.2720    2.0690 C.3     2  LIG2       -0.0237
     12    C       28.6080   -1.2490    2.7350 C.3     2  LIG2       -0.0593
     13    C       26.7820   -2.3620    4.1300 C.3     2  LIG2       -0.0593
     14    C       29.0150    3.0840    5.8550 C.3     2  LIG2       -0.0498
     15    C       29.8380    0.6540    6.0170 C.3     2  LIG2       -0.0621
     16    C       24.8940    2.6480    4.4610 C.3     2  LIG2       -0.0358
     17    H       26.4710    0.1100    5.2640 H       2  LIG2        0.0312
     18    H       25.2080   -0.3930    3.1200 H       2  LIG2        0.0309
     19    H       28.8220    1.2320    3.6880 H       2  LIG2        0.0310
     20    H       28.1010    3.1620    3.1170 H       2  LIG2        0.0331
     21    H       27.4880    1.0800    1.6540 H       2  LIG2        0.0269
     22    H       26.0370    0.4410    0.9550 H       2  LIG2        0.0269
     23    H       27.9030    1.4130    6.5450 H       2  LIG2        0.0301
     24    H       28.1990    4.7660    4.7520 H       2  LIG2        0.0269
     25    H       27.0490    3.9630    5.7990 H       2  LIG2        0.0269
     26    H       26.0990    2.9000    1.2450 H       2  LIG2        0.0293
     27    H       24.6790    2.1520    1.9070 H       2  LIG2        0.0293
     28    H       28.4730   -1.9960    1.9520 H       2  LIG2        0.0235
     29    H       29.3960   -1.6070    3.3970 H       2  LIG2        0.0235
     30    H       28.9880   -0.3560    2.2460 H       2  LIG2        0.0235
     31    H       26.5990   -3.1070    3.3550 H       2  LIG2        0.0235
     32    H       25.8490   -2.2280    4.6790 H       2  LIG2        0.0235
     33    H       27.5110   -2.7760    4.8280 H       2  LIG2        0.0235
     34    H       29.0970    3.4300    6.8860 H       2  LIG2        0.0268
     35    H       29.9700    3.2790    5.3640 H       2  LIG2        0.0268
     36    H       30.6330    0.8040    5.2850 H       2  LIG2        0.0233
     37    H       29.5250   -0.3890    5.9570 H       2  LIG2        0.0233
     38    H       30.2660    0.8110    7.0080 H       2  LIG2        0.0233
     39    H       24.8540    1.5920    4.7120 H       2  LIG2        0.0257
     40    H       23.9040    2.8990    4.0790 H       2  LIG2        0.0257
     41    H       25.0110    3.1930    5.3980 H       2  LIG2        0.0257
     42    H       26.4640    4.6900    2.5850 H       2  LIG2        0.2102
@<TRIPOS>BOND
     1    22     7    1
     2    26    11    1
     3    21     7    1
     4     7    11    1
     5     7     4    1
     6    27    11    1
     7    28    12    1
     8    11     9    1
     9    30    12    1
    10    42     1    1
    11    12    29    1
    12    12     3    1
    13     4    18    1
    14     4     3    1
    15     4     2    1
    16    20     6    1
    17     1     9    1
    18    31    13    1
    19     9     6    1
    20     9    16    1
    21     3    13    1
    22     3     2    1
    23    19     5    1
    24     6     5    1
    25     6    10    1
    26    40    16    1
    27    13    32    1
    28    13    33    1
    29     2     5    1
    30     2    17    1
    31     5     8    1
    32    16    39    1
    33    16    41    1
    34    24    10    1
    35    10    25    1
    36    10    14    1
    37    36    15    1
    38    35    14    1
    39     8    14    1
    40     8    15    1
    41     8    23    1
    42    14    34    1
    43    37    15    1
    44    15    38    1
@<TRIPOS>MOLECULE
11996452_8_run_18.pdb
 42 44 0 0 0
SMALL
GASTEIGER

@<TRIPOS>ATOM
      1    O       30.3490    0.7640    4.8710 O.3     2  LIG2       -0.3886
      2    C       26.3640    2.8330    4.7960 C.3     2  LIG2       -0.0289
      3    C       25.9620    4.2880    4.5850 C.3     2  LIG2       -0.0284
      4    C       27.2760    3.9780    5.2590 C.3     2  LIG2       -0.0319
      5    C       26.8390    1.9020    3.6430 C.3     2  LIG2       -0.0294
      6    C       28.2430    1.2130    3.7540 C.3     2  LIG2       -0.0090
      7    C       28.6540    4.1120    4.5890 C.3     2  LIG2       -0.0468
      8    C       25.8230    0.7730    3.3530 C.3     2  LIG2       -0.0404
      9    C       29.1650    1.5400    4.9860 C.3     2  LIG2        0.0664
     10    C       27.9840   -0.2860    3.4850 C.3     2  LIG2       -0.0471
     11    C       29.6590    3.0240    5.0180 C.3     2  LIG2       -0.0237
     12    C       25.9220    4.9330    3.1790 C.3     2  LIG2       -0.0593
     13    C       24.8280    4.8180    5.4830 C.3     2  LIG2       -0.0593
     14    C       26.6540   -0.3540    2.7380 C.3     2  LIG2       -0.0498
     15    C       24.6390    1.2220    2.4790 C.3     2  LIG2       -0.0621
     16    C       28.6010    1.1100    6.3680 C.3     2  LIG2       -0.0358
     17    H       25.8470    2.2800    5.5800 H       2  LIG2        0.0312
     18    H       27.3330    4.1980    6.3270 H       2  LIG2        0.0309
     19    H       26.9000    2.4930    2.7310 H       2  LIG2        0.0310
     20    H       28.8150    1.5550    2.8880 H       2  LIG2        0.0331
     21    H       28.5730    4.0880    3.5040 H       2  LIG2        0.0269
     22    H       29.0680    5.0940    4.8250 H       2  LIG2        0.0269
     23    H       25.4220    0.3930    4.2960 H       2  LIG2        0.0301
     24    H       28.7840   -0.7370    2.8970 H       2  LIG2        0.0269
     25    H       27.9150   -0.8540    4.4110 H       2  LIG2        0.0269
     26    H       30.5200    3.1430    4.3560 H       2  LIG2        0.0293
     27    H       30.0290    3.2680    6.0160 H       2  LIG2        0.0293
     28    H       25.9790    6.0190    3.2540 H       2  LIG2        0.0235
     29    H       24.9890    4.6870    2.6720 H       2  LIG2        0.0235
     30    H       26.7290    4.6270    2.5190 H       2  LIG2        0.0235
     31    H       24.8960    5.9000    5.6050 H       2  LIG2        0.0235
     32    H       24.8530    4.3770    6.4800 H       2  LIG2        0.0235
     33    H       23.8510    4.5910    5.0530 H       2  LIG2        0.0235
     34    H       26.1780   -1.3280    2.8550 H       2  LIG2        0.0268
     35    H       26.8060   -0.1870    1.6700 H       2  LIG2        0.0268
     36    H       24.9720    1.5960    1.5100 H       2  LIG2        0.0233
     37    H       24.0730    2.0170    2.9650 H       2  LIG2        0.0233
     38    H       23.9510    0.3950    2.2960 H       2  LIG2        0.0233
     39    H       27.7340    1.6850    6.6780 H       2  LIG2        0.0257
     40    H       29.3410    1.2430    7.1580 H       2  LIG2        0.0257
     41    H       28.3110    0.0590    6.3900 H       2  LIG2        0.0257
     42    H       30.7680    0.9740    4.0330 H       2  LIG2        0.2102
@<TRIPOS>BOND
     1    36    15    1
     2    35    14    1
     3    38    15    1
     4    15    37    1
     5    15     8    1
     6    30    12    1
     7    29    12    1
     8    19     5    1
     9    14    34    1
    10    14     8    1
    11    14    10    1
    12    20     6    1
    13    24    10    1
    14    12    28    1
    15    12     3    1
    16     8     5    1
    17     8    23    1
    18    10     6    1
    19    10    25    1
    20    21     7    1
    21     5     6    1
    22     5     2    1
    23     6     9    1
    24    42     1    1
    25    26    11    1
    26     3     2    1
    27     3     4    1
    28     3    13    1
    29     7    22    1
    30     7    11    1
    31     7     4    1
    32     2     4    1
    33     2    17    1
    34     1     9    1
    35     9    11    1
    36     9    16    1
    37    11    27    1
    38    33    13    1
    39     4    18    1
    40    13    31    1
    41    13    32    1
    42    16    41    1
    43    16    39    1
    44    16    40    1
@<TRIPOS>MOLECULE
11996452_8_run_6.pdb
 42 44 0 0 0
SMALL
GASTEIGER

@<TRIPOS>ATOM
      1    O       30.5990   -1.0580    4.1050 O.3     2  LIG2       -0.3886
      2    C       26.9920    1.3840    3.0130 C.3     2  LIG2       -0.0289
      3    C       25.5040    1.0570    2.9560 C.3     2  LIG2       -0.0284
      4    C       26.5080   -0.0260    2.6460 C.3     2  LIG2       -0.0319
      5    C       27.7700    1.5990    4.3440 C.3     2  LIG2       -0.0294
      6    C       29.0230    0.7060    4.6430 C.3     2  LIG2       -0.0090
      7    C       26.8720   -1.1780    3.5990 C.3     2  LIG2       -0.0468
      8    C       28.2290    3.0660    4.5180 C.3     2  LIG2       -0.0404
      9    C       29.4160   -0.4310    3.6300 C.3     2  LIG2        0.0664
     10    C       30.1500    1.6960    5.0150 C.3     2  LIG2       -0.0471
     11    C       28.3600   -1.5810    3.5430 C.3     2  LIG2       -0.0237
     12    C       24.6300    0.9900    4.2310 C.3     2  LIG2       -0.0593
     13    C       24.7240    1.6430    1.7650 C.3     2  LIG2       -0.0593
     14    C       29.4510    2.9880    5.4350 C.3     2  LIG2       -0.0498
     15    C       27.1210    3.9990    5.0350 C.3     2  LIG2       -0.0621
     16    C       29.8280    0.0560    2.2140 C.3     2  LIG2       -0.0358
     17    H       27.4050    1.9810    2.1990 H       2  LIG2        0.0312
     18    H       26.5700   -0.3420    1.6030 H       2  LIG2        0.0309
     19    H       27.0920    1.3970    5.1710 H       2  LIG2        0.0310
     20    H       28.8020    0.1770    5.5730 H       2  LIG2        0.0331
     21    H       26.6270   -0.9340    4.6310 H       2  LIG2        0.0269
     22    H       26.2570   -2.0460    3.3550 H       2  LIG2        0.0269
     23    H       28.5770    3.4540    3.5570 H       2  LIG2        0.0301
     24    H       30.7770    1.3140    5.8200 H       2  LIG2        0.0269
     25    H       30.8070    1.8930    4.1690 H       2  LIG2        0.0269
     26    H       28.5040   -2.2810    4.3690 H       2  LIG2        0.0293
     27    H       28.5260   -2.1680    2.6380 H       2  LIG2        0.0293
     28    H       23.7300    0.4030    4.0470 H       2  LIG2        0.0235
     29    H       24.3150    1.9890    4.5320 H       2  LIG2        0.0235
     30    H       25.1190    0.5420    5.0910 H       2  LIG2        0.0235
     31    H       23.8430    1.0410    1.5390 H       2  LIG2        0.0235
     32    H       25.3280    1.6860    0.8580 H       2  LIG2        0.0235
     33    H       24.3890    2.6590    1.9790 H       2  LIG2        0.0235
     34    H       30.1050    3.8520    5.3230 H       2  LIG2        0.0268
     35    H       29.1490    2.9360    6.4820 H       2  LIG2        0.0268
     36    H       26.7410    3.6760    6.0060 H       2  LIG2        0.0233
     37    H       26.2790    4.0280    4.3430 H       2  LIG2        0.0233
     38    H       27.4880    5.0200    5.1470 H       2  LIG2        0.0233
     39    H       29.0040    0.4790    1.6470 H       2  LIG2        0.0257
     40    H       30.2140   -0.7650    1.6070 H       2  LIG2        0.0257
     41    H       30.6130    0.8120    2.2460 H       2  LIG2        0.0257
     42    H       31.3360   -0.4600    3.9610 H       2  LIG2        0.2102
@<TRIPOS>BOND
     1    32    13    1
     2    31    13    1
     3    18     4    1
     4    40    16    1
     5    39    16    1
     6    13    33    1
     7    13     3    1
     8    17     2    1
     9    16    41    1
    10    16     9    1
    11    27    11    1
    12     4     3    1
    13     4     2    1
    14     4     7    1
    15     3     2    1
    16     3    12    1
    17     2     5    1
    18    22     7    1
    19    11     7    1
    20    11     9    1
    21    11    26    1
    22    23     8    1
    23     7    21    1
    24     9     1    1
    25     9     6    1
    26    42     1    1
    27    28    12    1
    28    25    10    1
    29    12    29    1
    30    12    30    1
    31    37    15    1
    32     5     8    1
    33     5     6    1
    34     5    19    1
    35     8    15    1
    36     8    14    1
    37     6    10    1
    38     6    20    1
    39    10    14    1
    40    10    24    1
    41    15    38    1
    42    15    36    1
    43    34    14    1
    44    14    35    1
@<TRIPOS>MOLECULE
11996452_8_run_2.pdb
 42 44 0 0 0
SMALL
GASTEIGER

@<TRIPOS>ATOM
      1    O       24.0870   -0.0300    2.5490 O.3     2  LIG2       -0.3886
      2    C       27.4050    2.7200    3.8100 C.3     2  LIG2       -0.0289
      3    C       27.4290    3.9850    4.6610 C.3     2  LIG2       -0.0284
      4    C       26.2110    3.6840    3.8230 C.3     2  LIG2       -0.0319
      5    C       27.2370    1.2930    4.4070 C.3     2  LIG2       -0.0294
      6    C       26.0530    0.3960    3.9040 C.3     2  LIG2       -0.0090
      7    C       24.8750    3.1620    4.3800 C.3     2  LIG2       -0.0468
      8    C       28.5210    0.4450    4.2540 C.3     2  LIG2       -0.0404
      9    C       25.0260    0.9860    2.8710 C.3     2  LIG2        0.0664
     10    C       26.7000   -0.9530    3.5150 C.3     2  LIG2       -0.0471
     11    C       24.1660    2.1590    3.4480 C.3     2  LIG2       -0.0237
     12    C       27.3640    3.9370    6.2060 C.3     2  LIG2       -0.0593
     13    C       28.3480    5.1190    4.1690 C.3     2  LIG2       -0.0593
     14    C       28.0350   -1.0060    4.2560 C.3     2  LIG2       -0.0498
     15    C       29.5870    0.7450    5.3220 C.3     2  LIG2       -0.0621
     16    C       25.6190    1.3600    1.4860 C.3     2  LIG2       -0.0358
     17    H       28.0120    2.7150    2.9050 H       2  LIG2        0.0312
     18    H       26.0520    4.3270    2.9550 H       2  LIG2        0.0309
     19    H       27.0660    1.3890    5.4780 H       2  LIG2        0.0310
     20    H       25.4510    0.1680    4.7880 H       2  LIG2        0.0331
     21    H       25.0070    2.6860    5.3500 H       2  LIG2        0.0269
     22    H       24.2120    4.0100    4.5640 H       2  LIG2        0.0269
     23    H       28.9640    0.6290    3.2720 H       2  LIG2        0.0301
     24    H       26.0700   -1.7990    3.7880 H       2  LIG2        0.0269
     25    H       26.8730   -1.0210    2.4420 H       2  LIG2        0.0269
     26    H       23.3330    1.7570    4.0310 H       2  LIG2        0.0293
     27    H       23.7010    2.7140    2.6300 H       2  LIG2        0.0293
     28    H       27.0250    4.8930    6.6050 H       2  LIG2        0.0235
     29    H       28.3500    3.7360    6.6240 H       2  LIG2        0.0235
     30    H       26.6920    3.1820    6.6060 H       2  LIG2        0.0235
     31    H       27.9980    6.0900    4.5230 H       2  LIG2        0.0235
     32    H       28.3940    5.1680    3.0800 H       2  LIG2        0.0235
     33    H       29.3680    4.9780    4.5290 H       2  LIG2        0.0235
     34    H       28.7400   -1.6770    3.7640 H       2  LIG2        0.0268
     35    H       27.8920   -1.3670    5.2760 H       2  LIG2        0.0268
     36    H       29.2110    0.5620    6.3300 H       2  LIG2        0.0233
     37    H       29.9070    1.7870    5.2720 H       2  LIG2        0.0233
     38    H       30.4710    0.1240    5.1790 H       2  LIG2        0.0233
     39    H       26.2960    2.2090    1.5210 H       2  LIG2        0.0257
     40    H       24.8360    1.6360    0.7780 H       2  LIG2        0.0257
     41    H       26.1680    0.5350    1.0320 H       2  LIG2        0.0257
     42    H       23.5170   -0.1660    3.3100 H       2  LIG2        0.2102
@<TRIPOS>BOND
     1    40    16    1
     2    41    16    1
     3    16    39    1
     4    16     9    1
     5    25    10    1
     6     1     9    1
     7     1    42    1
     8    27    11    1
     9     9    11    1
    10     9     6    1
    11    17     2    1
    12    18     4    1
    13    32    13    1
    14    23     8    1
    15    11    26    1
    16    11     7    1
    17    10    24    1
    18    10     6    1
    19    10    14    1
    20    34    14    1
    21     2     4    1
    22     2     5    1
    23     2     3    1
    24     4     7    1
    25     4     3    1
    26     6     5    1
    27     6    20    1
    28    13    31    1
    29    13    33    1
    30    13     3    1
    31     8    14    1
    32     8     5    1
    33     8    15    1
    34    14    35    1
    35     7    22    1
    36     7    21    1
    37     5    19    1
    38     3    12    1
    39    38    15    1
    40    37    15    1
    41    15    36    1
    42    12    28    1
    43    12    30    1
    44    12    29    1
@<TRIPOS>MOLECULE
11996452_8_run_24.pdb
 42 44 0 0 0
SMALL
GASTEIGER

@<TRIPOS>ATOM
      1    O       23.3970    3.2350    2.7960 O.3     2  LIG2       -0.3886
      2    C       27.1690    1.6090    4.6110 C.3     2  LIG2       -0.0289
      3    C       28.2490    0.6720    4.0800 C.3     2  LIG2       -0.0284
      4    C       26.8240    0.4940    3.6140 C.3     2  LIG2       -0.0319
      5    C       27.0340    3.0950    4.1680 C.3     2  LIG2       -0.0294
      6    C       25.6770    3.5800    3.5490 C.3     2  LIG2       -0.0090
      7    C       26.3010    0.9090    2.2280 C.3     2  LIG2       -0.0468
      8    C       27.3640    4.0760    5.3160 C.3     2  LIG2       -0.0404
      9    C       24.5200    2.5410    3.3220 C.3     2  LIG2        0.0664
     10    C       25.2980    4.8500    4.3450 C.3     2  LIG2       -0.0471
     11    C       24.8580    1.4550    2.2490 C.3     2  LIG2       -0.0237
     12    C       29.3490    1.1570    3.1070 C.3     2  LIG2       -0.0593
     13    C       28.7910   -0.3730    5.0730 C.3     2  LIG2       -0.0593
     14    C       26.5950    5.3530    4.9740 C.3     2  LIG2       -0.0498
     15    C       28.8730    4.2940    5.5230 C.3     2  LIG2       -0.0621
     16    C       23.9500    1.8920    4.6130 C.3     2  LIG2       -0.0358
     17    H       26.8370    1.4580    5.6380 H       2  LIG2        0.0312
     18    H       26.3030   -0.3910    3.9830 H       2  LIG2        0.0309
     19    H       27.7690    3.2860    3.3890 H       2  LIG2        0.0310
     20    H       25.9170    3.9450    2.5460 H       2  LIG2        0.0331
     21    H       26.9390    1.6630    1.7710 H       2  LIG2        0.0269
     22    H       26.3480    0.0480    1.5590 H       2  LIG2        0.0269
     23    H       26.9460    3.6950    6.2520 H       2  LIG2        0.0301
     24    H       24.8540    5.6130    3.7050 H       2  LIG2        0.0269
     25    H       24.5710    4.6310    5.1260 H       2  LIG2        0.0269
     26    H       24.6820    1.8540    1.2470 H       2  LIG2        0.0293
     27    H       24.1710    0.6120    2.3470 H       2  LIG2        0.0293
     28    H       29.7800    0.3140    2.5660 H       2  LIG2        0.0235
     29    H       30.1560    1.6430    3.6540 H       2  LIG2        0.0235
     30    H       29.0090    1.8630    2.3550 H       2  LIG2        0.0235
     31    H       29.1860   -1.2440    4.5490 H       2  LIG2        0.0235
     32    H       28.0200   -0.7280    5.7570 H       2  LIG2        0.0235
     33    H       29.5950    0.0460    5.6800 H       2  LIG2        0.0235
     34    H       26.4010    5.9660    5.8550 H       2  LIG2        0.0268
     35    H       27.1530    5.9650    4.2630 H       2  LIG2        0.0268
     36    H       29.3490    4.6940    4.6270 H       2  LIG2        0.0233
     37    H       29.3730    3.3580    5.7750 H       2  LIG2        0.0233
     38    H       29.0590    4.9940    6.3380 H       2  LIG2        0.0233
     39    H       24.6510    1.2240    5.1050 H       2  LIG2        0.0257
     40    H       23.0680    1.2860    4.3980 H       2  LIG2        0.0257
     41    H       23.6440    2.6320    5.3510 H       2  LIG2        0.0257
     42    H       22.6790    2.6080    2.6870 H       2  LIG2        0.2102
@<TRIPOS>BOND
     1    26    11    1
     2    22     7    1
     3    21     7    1
     4     7    11    1
     5     7     4    1
     6    11    27    1
     7    11     9    1
     8    30    12    1
     9    20     6    1
    10    28    12    1
    11    42     1    1
    12     1     9    1
    13    12    29    1
    14    12     3    1
    15     9     6    1
    16     9    16    1
    17    19     5    1
    18     6     5    1
    19     6    10    1
    20     4    18    1
    21     4     3    1
    22     4     2    1
    23    24    10    1
    24     3     2    1
    25     3    13    1
    26     5     2    1
    27     5     8    1
    28    35    14    1
    29    10    14    1
    30    10    25    1
    31    40    16    1
    32    31    13    1
    33     2    17    1
    34    16    39    1
    35    16    41    1
    36    36    15    1
    37    14     8    1
    38    14    34    1
    39    13    33    1
    40    13    32    1
    41     8    15    1
    42     8    23    1
    43    15    37    1
    44    15    38    1
@<TRIPOS>MOLECULE
11996452_8_run_18.pdb
 42 44 0 0 0
SMALL
GASTEIGER

@<TRIPOS>ATOM
      1    O       28.4990   -1.5900    3.9810 O.3     2  LIG2       -0.3886
      2    C       27.2850    2.6540    4.8070 C.3     2  LIG2       -0.0289
      3    C       27.9440    3.9930    4.4990 C.3     2  LIG2       -0.0284
      4    C       28.8140    2.7920    4.7760 C.3     2  LIG2       -0.0319
      5    C       26.5770    1.7820    3.7300 C.3     2  LIG2       -0.0294
      6    C       27.0610    0.3060    3.5120 C.3     2  LIG2       -0.0090
      7    C       29.5820    2.0040    3.7000 C.3     2  LIG2       -0.0468
      8    C       25.0490    1.7100    3.9530 C.3     2  LIG2       -0.0404
      9    C       28.2930   -0.2280    4.3290 C.3     2  LIG2        0.0664
     10    C       25.7810   -0.5570    3.5800 C.3     2  LIG2       -0.0471
     11    C       29.6380    0.4850    3.9680 C.3     2  LIG2       -0.0237
     12    C       27.8910    4.6290    3.0900 C.3     2  LIG2       -0.0593
     13    C       27.8630    5.0620    5.6050 C.3     2  LIG2       -0.0593
     14    C       24.6190    0.3940    3.3020 C.3     2  LIG2       -0.0498
     15    C       24.2920    2.9410    3.4270 C.3     2  LIG2       -0.0621
     16    C       28.0910   -0.2910    5.8670 C.3     2  LIG2       -0.0358
     17    H       26.8310    2.5340    5.7910 H       2  LIG2        0.0312
     18    H       29.3550    2.7960    5.7240 H       2  LIG2        0.0309
     19    H       26.7170    2.2570    2.7610 H       2  LIG2        0.0310
     20    H       27.3800    0.2450    2.4680 H       2  LIG2        0.0331
     21    H       29.1520    2.1560    2.7120 H       2  LIG2        0.0269
     22    H       30.5990    2.3930    3.6350 H       2  LIG2        0.0269
     23    H       24.8410    1.6170    5.0220 H       2  LIG2        0.0301
     24    H       25.8000   -1.3710    2.8550 H       2  LIG2        0.0269
     25    H       25.6560   -1.0120    4.5620 H       2  LIG2        0.0269
     26    H       30.0610    0.0440    3.0620 H       2  LIG2        0.0293
     27    H       30.3770    0.2980    4.7500 H       2  LIG2        0.0293
     28    H       28.6930    5.3570    2.9670 H       2  LIG2        0.0235
     29    H       26.9470    5.1530    2.9420 H       2  LIG2        0.0235
     30    H       27.9890    3.9220    2.2710 H       2  LIG2        0.0235
     31    H       28.6860    5.7740    5.5250 H       2  LIG2        0.0235
     32    H       27.9090    4.6250    6.6030 H       2  LIG2        0.0235
     33    H       26.9290    5.6210    5.5400 H       2  LIG2        0.0235
     34    H       23.6840    0.0160    3.7150 H       2  LIG2        0.0268
     35    H       24.4780    0.5200    2.2270 H       2  LIG2        0.0268
     36    H       24.4440    3.0800    2.3550 H       2  LIG2        0.0233
     37    H       24.6270    3.8500    3.9290 H       2  LIG2        0.0233
     38    H       23.2200    2.8470    3.6010 H       2  LIG2        0.0233
     39    H       28.0200    0.6880    6.3330 H       2  LIG2        0.0257
     40    H       28.9270   -0.7910    6.3590 H       2  LIG2        0.0257
     41    H       27.1940   -0.8420    6.1470 H       2  LIG2        0.0257
     42    H       28.5450   -1.6530    3.0240 H       2  LIG2        0.2102
@<TRIPOS>BOND
     1    35    14    1
     2    30    12    1
     3    36    15    1
     4    20     6    1
     5    21     7    1
     6    19     5    1
     7    24    10    1
     8    29    12    1
     9    28    12    1
    10    42     1    1
    11    26    11    1
    12    12     3    1
    13    14    10    1
    14    14    34    1
    15    14     8    1
    16    15    38    1
    17    15    37    1
    18    15     8    1
    19     6    10    1
    20     6     5    1
    21     6     9    1
    22    10    25    1
    23    22     7    1
    24     7    11    1
    25     7     4    1
    26     5     8    1
    27     5     2    1
    28     8    23    1
    29    11     9    1
    30    11    27    1
    31     1     9    1
    32     9    16    1
    33     3     4    1
    34     3     2    1
    35     3    13    1
    36     4     2    1
    37     4    18    1
    38     2    17    1
    39    31    13    1
    40    33    13    1
    41    13    32    1
    42    16    41    1
    43    16    39    1
    44    16    40    1
@<TRIPOS>MOLECULE
11996452_8_run_6.pdb
 42 44 0 0 0
SMALL
GASTEIGER

@<TRIPOS>ATOM
      1    O       28.0680    5.5840    5.6050 O.3     2  LIG2       -0.3886
      2    C       26.3470    1.7690    3.9770 C.3     2  LIG2       -0.0289
      3    C       25.3910    1.4780    2.8260 C.3     2  LIG2       -0.0284
      4    C       25.2470    2.7690    3.5930 C.3     2  LIG2       -0.0319
      5    C       27.8380    2.1620    3.7710 C.3     2  LIG2       -0.0294
      6    C       28.3580    3.5100    4.3800 C.3     2  LIG2       -0.0090
      7    C       25.6840    4.1490    3.0710 C.3     2  LIG2       -0.0468
      8    C       28.8030    1.0600    4.2670 C.3     2  LIG2       -0.0404
      9    C       27.3460    4.4630    5.1140 C.3     2  LIG2        0.0664
     10    C       29.6290    3.1350    5.1750 C.3     2  LIG2       -0.0471
     11    C       26.2610    5.0700    4.1650 C.3     2  LIG2       -0.0237
     12    C       25.8590    1.4770    1.3510 C.3     2  LIG2       -0.0593
     13    C       24.3260    0.3950    3.0820 C.3     2  LIG2       -0.0593
     14    C       30.0990    1.7980    4.6070 C.3     2  LIG2       -0.0498
     15    C       28.9870   -0.0920    3.2650 C.3     2  LIG2       -0.0621
     16    C       26.6990    3.8790    6.3990 C.3     2  LIG2       -0.0358
     17    H       26.1950    1.2170    4.9050 H       2  LIG2        0.0312
     18    H       24.3710    2.8510    4.2380 H       2  LIG2        0.0309
     19    H       28.0200    2.2610    2.7020 H       2  LIG2        0.0310
     20    H       28.7250    4.1000    3.5360 H       2  LIG2        0.0331
     21    H       26.4270    4.0580    2.2810 H       2  LIG2        0.0269
     22    H       24.8280    4.6390    2.6050 H       2  LIG2        0.0269
     23    H       28.4240    0.6380    5.2010 H       2  LIG2        0.0301
     24    H       30.4060    3.8930    5.0800 H       2  LIG2        0.0269
     25    H       29.4200    3.0290    6.2390 H       2  LIG2        0.0269
     26    H       26.6720    5.9330    3.6350 H       2  LIG2        0.0293
     27    H       25.4320    5.4660    4.7570 H       2  LIG2        0.0293
     28    H       25.0110    1.6180    0.6800 H       2  LIG2        0.0235
     29    H       26.3230    0.5240    1.0980 H       2  LIG2        0.0235
     30    H       26.5790    2.2530    1.1050 H       2  LIG2        0.0235
     31    H       23.4510    0.5470    2.4500 H       2  LIG2        0.0235
     32    H       23.9820    0.3930    4.1170 H       2  LIG2        0.0235
     33    H       24.7230   -0.5990    2.8710 H       2  LIG2        0.0235
     34    H       30.7090    1.2490    5.3250 H       2  LIG2        0.0268
     35    H       30.7040    1.9540    3.7120 H       2  LIG2        0.0268
     36    H       29.3830    0.2610    2.3120 H       2  LIG2        0.0233
     37    H       28.0380   -0.5920    3.0640 H       2  LIG2        0.0233
     38    H       29.6760   -0.8430    3.6520 H       2  LIG2        0.0233
     39    H       26.0130    3.0600    6.2030 H       2  LIG2        0.0257
     40    H       26.1140    4.6330    6.9290 H       2  LIG2        0.0257
     41    H       27.4400    3.5090    7.1080 H       2  LIG2        0.0257
     42    H       27.4680    6.1260    6.1220 H       2  LIG2        0.2102
@<TRIPOS>BOND
     1    28    12    1
     2    29    12    1
     3    30    12    1
     4    12     3    1
     5    21     7    1
     6    36    15    1
     7    31    13    1
     8    22     7    1
     9    19     5    1
    10     3    13    1
    11     3     4    1
    12     3     2    1
    13    33    13    1
    14    37    15    1
    15     7     4    1
    16     7    11    1
    17    13    32    1
    18    15    38    1
    19    15     8    1
    20    20     6    1
    21     4     2    1
    22     4    18    1
    23    26    11    1
    24    35    14    1
    25     5     2    1
    26     5     8    1
    27     5     6    1
    28     2    17    1
    29    11    27    1
    30    11     9    1
    31     8    14    1
    32     8    23    1
    33     6     9    1
    34     6    10    1
    35    14    10    1
    36    14    34    1
    37    24    10    1
    38     9     1    1
    39     9    16    1
    40    10    25    1
    41     1    42    1
    42    39    16    1
    43    16    40    1
    44    16    41    1
@<TRIPOS>MOLECULE
11996452_8_run_20.pdb
 42 44 0 0 0
SMALL
GASTEIGER

@<TRIPOS>ATOM
      1    O       28.1930    6.4650    5.3750 O.3     2  LIG2       -0.3886
      2    C       26.2120    3.1240    3.1220 C.3     2  LIG2       -0.0289
      3    C       26.3340    1.6060    3.2110 C.3     2  LIG2       -0.0284
      4    C       27.5400    2.4600    3.5140 C.3     2  LIG2       -0.0319
      5    C       25.4510    3.9820    4.1740 C.3     2  LIG2       -0.0294
      6    C       26.2190    5.1350    4.9090 C.3     2  LIG2       -0.0090
      7    C       28.0860    2.7300    4.9270 C.3     2  LIG2       -0.0468
      8    C       24.1700    4.6180    3.5860 C.3     2  LIG2       -0.0404
      9    C       27.7510    5.3440    4.6240 C.3     2  LIG2        0.0664
     10    C       25.3260    6.3860    4.7480 C.3     2  LIG2       -0.0471
     11    C       28.6440    4.1560    5.1140 C.3     2  LIG2       -0.0237
     12    C       25.6360    0.7910    4.3240 C.3     2  LIG2       -0.0593
     13    C       26.3410    0.8450    1.8720 C.3     2  LIG2       -0.0593
     14    C       23.9250    5.8640    4.4390 C.3     2  LIG2       -0.0498
     15    C       22.9730    3.6530    3.5350 C.3     2  LIG2       -0.0621
     16    C       28.1050    5.7430    3.1660 C.3     2  LIG2       -0.0358
     17    H       26.1680    3.5650    2.1270 H       2  LIG2        0.0312
     18    H       28.3460    2.4360    2.7790 H       2  LIG2        0.0309
     19    H       25.1200    3.3250    4.9750 H       2  LIG2        0.0310
     20    H       26.1700    4.8960    5.9750 H       2  LIG2        0.0331
     21    H       27.3240    2.5640    5.6860 H       2  LIG2        0.0269
     22    H       28.8730    2.0070    5.1470 H       2  LIG2        0.0269
     23    H       24.3690    4.9640    2.5690 H       2  LIG2        0.0301
     24    H       25.3220    7.0010    5.6490 H       2  LIG2        0.0269
     25    H       25.6690    7.0220    3.9330 H       2  LIG2        0.0269
     26    H       28.8400    4.2560    6.1840 H       2  LIG2        0.0293
     27    H       29.6240    4.2100    4.6360 H       2  LIG2        0.0293
     28    H       26.1180   -0.1800    4.4480 H       2  LIG2        0.0235
     29    H       24.5930    0.6100    4.0690 H       2  LIG2        0.0235
     30    H       25.6430    1.2640    5.3030 H       2  LIG2        0.0235
     31    H       26.8590   -0.1100    1.9660 H       2  LIG2        0.0235
     32    H       26.8390    1.4080    1.0810 H       2  LIG2        0.0235
     33    H       25.3240    0.6430    1.5330 H       2  LIG2        0.0235
     34    H       23.3260    6.6100    3.9160 H       2  LIG2        0.0268
     35    H       23.4000    5.6070    5.3610 H       2  LIG2        0.0268
     36    H       22.7100    3.2840    4.5270 H       2  LIG2        0.0233
     37    H       23.1940    2.7890    2.9080 H       2  LIG2        0.0233
     38    H       22.0920    4.1430    3.1190 H       2  LIG2        0.0233
     39    H       27.9290    4.9480    2.4460 H       2  LIG2        0.0257
     40    H       29.1610    6.0010    3.0680 H       2  LIG2        0.0257
     41    H       27.5420    6.6120    2.8240 H       2  LIG2        0.0257
     42    H       27.8230    6.4010    6.2590 H       2  LIG2        0.2102
@<TRIPOS>BOND
     1    32    13    1
     2    33    13    1
     3    13    31    1
     4    13     3    1
     5    17     2    1
     6    39    16    1
     7    23     8    1
     8    18     4    1
     9    41    16    1
    10    37    15    1
    11    40    16    1
    12    38    15    1
    13     2     3    1
    14     2     4    1
    15     2     5    1
    16    16     9    1
    17     3     4    1
    18     3    12    1
    19     4     7    1
    20    15     8    1
    21    15    36    1
    22     8     5    1
    23     8    14    1
    24    34    14    1
    25    25    10    1
    26    29    12    1
    27     5     6    1
    28     5    19    1
    29    12    28    1
    30    12    30    1
    31    14    10    1
    32    14    35    1
    33     9     6    1
    34     9    11    1
    35     9     1    1
    36    27    11    1
    37    10     6    1
    38    10    24    1
    39     6    20    1
    40     7    11    1
    41     7    22    1
    42     7    21    1
    43    11    26    1
    44     1    42    1
