@<TRIPOS>MOLECULE
11996452_5_run_23.pdb
 42 44 0 0 0
SMALL
GASTEIGER

@<TRIPOS>ATOM
      1    O       29.8490   -0.0540    3.7030 O.3     2  LIG2       -0.3886
      2    C       27.1400    3.1730    3.2700 C.3     2  LIG2       -0.0289
      3    C       26.6360    4.1330    4.3320 C.3     2  LIG2       -0.0284
      4    C       28.1340    4.0300    4.0860 C.3     2  LIG2       -0.0319
      5    C       27.1380    1.6060    3.2860 C.3     2  LIG2       -0.0294
      6    C       27.6790    0.8140    4.5070 C.3     2  LIG2       -0.0090
      7    C       29.1240    3.3770    5.0810 C.3     2  LIG2       -0.0468
      8    C       25.8110    0.9160    2.8490 C.3     2  LIG2       -0.0404
      9    C       29.2360    0.7960    4.6610 C.3     2  LIG2        0.0664
     10    C       27.0080   -0.5660    4.3810 C.3     2  LIG2       -0.0471
     11    C       29.9050    2.1880    4.4900 C.3     2  LIG2       -0.0237
     12    C       25.9450    5.4030    3.7960 C.3     2  LIG2       -0.0593
     13    C       26.0160    3.7140    5.6880 C.3     2  LIG2       -0.0593
     14    C       25.6270   -0.2780    3.8000 C.3     2  LIG2       -0.0498
     15    C       24.5530    1.8090    2.8000 C.3     2  LIG2       -0.0621
     16    C       29.6300    0.2030    6.0340 C.3     2  LIG2       -0.0358
     17    H       26.9840    3.4990    2.2400 H       2  LIG2        0.0312
     18    H       28.5910    4.8900    3.5930 H       2  LIG2        0.0309
     19    H       27.8380    1.3580    2.4850 H       2  LIG2        0.0310
     20    H       27.2710    1.2320    5.4160 H       2  LIG2        0.0331
     21    H       29.8560    4.1430    5.3420 H       2  LIG2        0.0269
     22    H       28.6670    3.1100    6.0310 H       2  LIG2        0.0269
     23    H       25.9470    0.5180    1.8420 H       2  LIG2        0.0301
     24    H       27.5620   -1.2240    3.7110 H       2  LIG2        0.0269
     25    H       26.9310   -1.0740    5.3440 H       2  LIG2        0.0269
     26    H       30.0750    2.4000    3.4320 H       2  LIG2        0.0293
     27    H       30.9020    2.1720    4.9350 H       2  LIG2        0.0293
     28    H       26.0150    6.2210    4.5130 H       2  LIG2        0.0235
     29    H       24.8880    5.2180    3.6010 H       2  LIG2        0.0235
     30    H       26.3890    5.7550    2.8650 H       2  LIG2        0.0235
     31    H       26.0320    4.5570    6.3790 H       2  LIG2        0.0235
     32    H       26.5150    2.9120    6.2110 H       2  LIG2        0.0235
     33    H       24.9730    3.4220    5.5710 H       2  LIG2        0.0235
     34    H       24.9310   -0.0330    4.6050 H       2  LIG2        0.0268
     35    H       25.2260   -1.1520    3.2840 H       2  LIG2        0.0268
     36    H       24.3130    2.2270    3.7750 H       2  LIG2        0.0233
     37    H       23.6860    1.2370    2.4700 H       2  LIG2        0.0233
     38    H       24.6760    2.6350    2.1000 H       2  LIG2        0.0233
     39    H       29.2430    0.8080    6.8550 H       2  LIG2        0.0257
     40    H       30.7130    0.1450    6.1610 H       2  LIG2        0.0257
     41    H       29.2420   -0.8080    6.1670 H       2  LIG2        0.0257
     42    H       30.7930    0.1160    3.7070 H       2  LIG2        0.2102
@<TRIPOS>BOND
     1    23     8    1
     2    38    15    1
     3    17     2    1
     4    37    15    1
     5    19     5    1
     6    15     8    1
     7    15    36    1
     8     8     5    1
     9     8    14    1
    10    30    12    1
    11     2     5    1
    12     2     4    1
    13     2     3    1
    14    35    14    1
    15     5     6    1
    16    26    11    1
    17    18     4    1
    18    29    12    1
    19     1    42    1
    20     1     9    1
    21    24    10    1
    22    12     3    1
    23    12    28    1
    24    14    10    1
    25    14    34    1
    26     4     3    1
    27     4     7    1
    28     3    13    1
    29    10     6    1
    30    10    25    1
    31    11     9    1
    32    11    27    1
    33    11     7    1
    34     6     9    1
    35     6    20    1
    36     9    16    1
    37     7    21    1
    38     7    22    1
    39    33    13    1
    40    13    32    1
    41    13    31    1
    42    16    40    1
    43    16    41    1
    44    16    39    1
@<TRIPOS>MOLECULE
11996452_5_run_23.pdb
 42 44 0 0 0
SMALL
GASTEIGER

@<TRIPOS>ATOM
      1    O       26.3670    4.9420    5.9220 O.3     2  LIG2       -0.3886
      2    C       27.3880    0.9820    4.8240 C.3     2  LIG2       -0.0289
      3    C       28.4610    0.5160    3.8570 C.3     2  LIG2       -0.0284
      4    C       28.8660    1.3710    5.0480 C.3     2  LIG2       -0.0319
      5    C       26.2470    2.0290    4.5880 C.3     2  LIG2       -0.0294
      6    C       26.5490    3.4250    3.9800 C.3     2  LIG2       -0.0090
      7    C       29.3330    2.8430    4.9290 C.3     2  LIG2       -0.0468
      8    C       24.9590    1.4980    3.8880 C.3     2  LIG2       -0.0404
      9    C       27.2580    4.4380    4.9390 C.3     2  LIG2        0.0664
     10    C       25.1940    3.8840    3.4120 C.3     2  LIG2       -0.0471
     11    C       28.4600    3.8370    5.7180 C.3     2  LIG2       -0.0237
     12    C       28.8190   -0.9810    3.9420 C.3     2  LIG2       -0.0593
     13    C       28.6350    1.0290    2.4060 C.3     2  LIG2       -0.0593
     14    C       24.5240    2.6070    2.9160 C.3     2  LIG2       -0.0498
     15    C       25.0720    0.1300    3.1850 C.3     2  LIG2       -0.0621
     16    C       27.7290    5.6820    4.1490 C.3     2  LIG2       -0.0358
     17    H       27.0040    0.2110    5.4950 H       2  LIG2        0.0312
     18    H       29.4170    0.8530    5.8340 H       2  LIG2        0.0309
     19    H       25.9170    2.2550    5.6050 H       2  LIG2        0.0310
     20    H       27.1820    3.3090    3.1120 H       2  LIG2        0.0331
     21    H       30.3360    2.8880    5.3550 H       2  LIG2        0.0269
     22    H       29.4650    3.1710    3.9010 H       2  LIG2        0.0269
     23    H       24.1770    1.3940    4.6420 H       2  LIG2        0.0301
     24    H       24.5750    4.3550    4.1770 H       2  LIG2        0.0269
     25    H       25.3120    4.6070    2.6020 H       2  LIG2        0.0269
     26    H       28.1120    3.3250    6.6180 H       2  LIG2        0.0293
     27    H       29.0990    4.6430    6.0850 H       2  LIG2        0.0293
     28    H       29.8360   -1.1640    3.5960 H       2  LIG2        0.0235
     29    H       28.1440   -1.5790    3.3280 H       2  LIG2        0.0235
     30    H       28.7540   -1.3660    4.9600 H       2  LIG2        0.0235
     31    H       29.6350    0.7870    2.0440 H       2  LIG2        0.0235
     32    H       28.5350    2.0950    2.2630 H       2  LIG2        0.0235
     33    H       27.9300    0.5470    1.7300 H       2  LIG2        0.0235
     34    H       24.8550    2.3870    1.8990 H       2  LIG2        0.0268
     35    H       23.4390    2.7180    2.8840 H       2  LIG2        0.0268
     36    H       25.8090    0.1430    2.3840 H       2  LIG2        0.0233
     37    H       24.1190   -0.1570    2.7420 H       2  LIG2        0.0233
     38    H       25.3490   -0.6590    3.8850 H       2  LIG2        0.0233
     39    H       28.4590    5.4140    3.3840 H       2  LIG2        0.0257
     40    H       28.1990    6.4250    4.7960 H       2  LIG2        0.0257
     41    H       26.9010    6.1810    3.6450 H       2  LIG2        0.0257
     42    H       26.8570    5.5250    6.5050 H       2  LIG2        0.2102
@<TRIPOS>BOND
     1    33    13    1
     2    34    14    1
     3    31    13    1
     4    32    13    1
     5    36    15    1
     6    13     3    1
     7    25    10    1
     8    37    15    1
     9    35    14    1
    10    14    10    1
    11    14     8    1
    12    20     6    1
    13    15    38    1
    14    15     8    1
    15    29    12    1
    16    39    16    1
    17    10     6    1
    18    10    24    1
    19    28    12    1
    20    41    16    1
    21     3    12    1
    22     3     2    1
    23     3     4    1
    24     8     5    1
    25     8    23    1
    26    22     7    1
    27    12    30    1
    28     6     5    1
    29     6     9    1
    30    16    40    1
    31    16     9    1
    32     5     2    1
    33     5    19    1
    34     2     4    1
    35     2    17    1
    36     7     4    1
    37     7    21    1
    38     7    11    1
    39     9    11    1
    40     9     1    1
    41     4    18    1
    42    11    27    1
    43    11    26    1
    44     1    42    1
@<TRIPOS>MOLECULE
11996452_5_run_11.pdb
 42 44 0 0 0
SMALL
GASTEIGER

@<TRIPOS>ATOM
      1    O       25.5880    4.7220    3.6070 O.3     2  LIG2       -0.3886
      2    C       27.6930    1.1060    2.9520 C.3     2  LIG2       -0.0289
      3    C       27.3110   -0.3000    3.3770 C.3     2  LIG2       -0.0284
      4    C       26.3530    0.4870    2.4950 C.3     2  LIG2       -0.0319
      5    C       27.7890    2.4010    3.8280 C.3     2  LIG2       -0.0294
      6    C       26.6350    2.8160    4.7800 C.3     2  LIG2       -0.0090
      7    C       24.9990    1.0520    2.9900 C.3     2  LIG2       -0.0468
      8    C       29.1200    2.6030    4.6130 C.3     2  LIG2       -0.0404
      9    C       25.3640    3.4040    4.0820 C.3     2  LIG2        0.0664
     10    C       27.3150    3.7380    5.8080 C.3     2  LIG2       -0.0471
     11    C       24.8790    2.5830    2.8550 C.3     2  LIG2       -0.0237
     12    C       28.0970   -1.4320    2.6860 C.3     2  LIG2       -0.0593
     13    C       26.9160   -0.7180    4.8150 C.3     2  LIG2       -0.0593
     14    C       28.7150    3.1600    5.9880 C.3     2  LIG2       -0.0498
     15    C       30.0380    1.3700    4.7420 C.3     2  LIG2       -0.0621
     16    C       24.2070    3.5350    5.1000 C.3     2  LIG2       -0.0358
     17    H       28.4630    1.1630    2.1810 H       2  LIG2        0.0312
     18    H       26.2750    0.1440    1.4630 H       2  LIG2        0.0309
     19    H       27.8050    3.1960    3.0780 H       2  LIG2        0.0310
     20    H       26.3170    1.9570    5.3550 H       2  LIG2        0.0331
     21    H       24.2260    0.6130    2.3580 H       2  LIG2        0.0269
     22    H       24.7390    0.7280    3.9950 H       2  LIG2        0.0269
     23    H       29.7050    3.3720    4.1050 H       2  LIG2        0.0301
     24    H       27.3810    4.7650    5.4470 H       2  LIG2        0.0269
     25    H       26.7750    3.7640    6.7570 H       2  LIG2        0.0269
     26    H       25.4310    2.8770    1.9590 H       2  LIG2        0.0293
     27    H       23.8390    2.8300    2.6360 H       2  LIG2        0.0293
     28    H       27.5200   -2.3570    2.6670 H       2  LIG2        0.0235
     29    H       29.0320   -1.6330    3.2100 H       2  LIG2        0.0235
     30    H       28.3500   -1.1910    1.6540 H       2  LIG2        0.0235
     31    H       26.3950   -1.6750    4.7930 H       2  LIG2        0.0235
     32    H       26.2520   -0.0480    5.3400 H       2  LIG2        0.0235
     33    H       27.7970   -0.8540    5.4420 H       2  LIG2        0.0235
     34    H       28.6940    2.3690    6.7400 H       2  LIG2        0.0268
     35    H       29.4130    3.9200    6.3420 H       2  LIG2        0.0268
     36    H       29.5510    0.5540    5.2730 H       2  LIG2        0.0233
     37    H       30.9450    1.6190    5.2930 H       2  LIG2        0.0233
     38    H       30.3490    0.9990    3.7650 H       2  LIG2        0.0233
     39    H       23.9200    2.5630    5.5040 H       2  LIG2        0.0257
     40    H       23.3130    3.9740    4.6530 H       2  LIG2        0.0257
     41    H       24.4800    4.1670    5.9460 H       2  LIG2        0.0257
     42    H       26.3140    4.7000    2.9810 H       2  LIG2        0.2102
@<TRIPOS>BOND
     1    18     4    1
     2    30    12    1
     3    26    11    1
     4    17     2    1
     5    21     7    1
     6     4     2    1
     7     4     7    1
     8     4     3    1
     9    27    11    1
    10    28    12    1
    11    12    29    1
    12    12     3    1
    13    11     7    1
    14    11     9    1
    15     2     3    1
    16     2     5    1
    17    42     1    1
    18     7    22    1
    19    19     5    1
    20     3    13    1
    21     1     9    1
    22    38    15    1
    23     5     8    1
    24     5     6    1
    25     9     6    1
    26     9    16    1
    27    23     8    1
    28     8    15    1
    29     8    14    1
    30    40    16    1
    31    15    36    1
    32    15    37    1
    33     6    20    1
    34     6    10    1
    35    31    13    1
    36    13    32    1
    37    13    33    1
    38    16    39    1
    39    16    41    1
    40    24    10    1
    41    10    14    1
    42    10    25    1
    43    14    35    1
    44    14    34    1
@<TRIPOS>MOLECULE
11996452_5_run_3.pdb
 42 44 0 0 0
SMALL
GASTEIGER

@<TRIPOS>ATOM
      1    O       25.3360    0.0710    4.8550 O.3     2  LIG2       -0.3886
      2    C       26.5250    4.1240    5.1670 C.3     2  LIG2       -0.0289
      3    C       26.4840    5.2060    4.1020 C.3     2  LIG2       -0.0284
      4    C       25.1910    4.4990    4.4820 C.3     2  LIG2       -0.0319
      5    C       27.1630    2.6960    5.0860 C.3     2  LIG2       -0.0294
      6    C       26.8710    1.7510    3.8900 C.3     2  LIG2       -0.0090
      7    C       24.4570    3.4980    3.5570 C.3     2  LIG2       -0.0468
      8    C       28.6940    2.6090    5.3700 C.3     2  LIG2       -0.0404
      9    C       25.4500    1.0970    3.8800 C.3     2  LIG2        0.0664
     10    C       28.0550    0.7660    3.8960 C.3     2  LIG2       -0.0471
     11    C       24.2930    2.0930    4.1690 C.3     2  LIG2       -0.0237
     12    C       26.6490    6.6470    4.6230 C.3     2  LIG2       -0.0593
     13    C       27.0800    5.0760    2.6790 C.3     2  LIG2       -0.0593
     14    C       29.2500    1.5940    4.3580 C.3     2  LIG2       -0.0498
     15    C       29.4760    3.9390    5.3380 C.3     2  LIG2       -0.0621
     16    C       25.1930    0.3930    2.5260 C.3     2  LIG2       -0.0358
     17    H       26.6380    4.4860    6.1900 H       2  LIG2        0.0312
     18    H       24.4770    5.0970    5.0490 H       2  LIG2        0.0309
     19    H       26.7100    2.1840    5.9380 H       2  LIG2        0.0310
     20    H       26.9790    2.2980    2.9650 H       2  LIG2        0.0331
     21    H       23.4550    3.8960    3.3970 H       2  LIG2        0.0269
     22    H       24.8850    3.4400    2.5590 H       2  LIG2        0.0269
     23    H       28.8340    2.1910    6.3680 H       2  LIG2        0.0301
     24    H       27.8880   -0.0610    4.5870 H       2  LIG2        0.0269
     25    H       28.2340    0.3330    2.9100 H       2  LIG2        0.0269
     26    H       24.1600    2.2180    5.2460 H       2  LIG2        0.0293
     27    H       23.3490    1.6710    3.8180 H       2  LIG2        0.0293
     28    H       26.1800    7.3650    3.9490 H       2  LIG2        0.0235
     29    H       27.7030    6.9110    4.7120 H       2  LIG2        0.0235
     30    H       26.1970    6.7880    5.6050 H       2  LIG2        0.0235
     31    H       26.6520    5.8370    2.0270 H       2  LIG2        0.0235
     32    H       26.9010    4.1390    2.1710 H       2  LIG2        0.0235
     33    H       28.1570    5.2360    2.6860 H       2  LIG2        0.0235
     34    H       29.7000    2.1010    3.5020 H       2  LIG2        0.0268
     35    H       30.0220    0.9610    4.7980 H       2  LIG2        0.0268
     36    H       29.4250    4.4180    4.3630 H       2  LIG2        0.0233
     37    H       30.5300    3.7720    5.5630 H       2  LIG2        0.0233
     38    H       29.0990    4.6430    6.0800 H       2  LIG2        0.0233
     39    H       25.2160    1.1030    1.6980 H       2  LIG2        0.0257
     40    H       24.2220   -0.1030    2.4980 H       2  LIG2        0.0257
     41    H       25.9440   -0.3710    2.3170 H       2  LIG2        0.0257
     42    H       25.4010    0.4710    5.7250 H       2  LIG2        0.2102
@<TRIPOS>BOND
     1    39    16    1
     2    31    13    1
     3    32    13    1
     4    41    16    1
     5    40    16    1
     6    16     9    1
     7    22     7    1
     8    13    33    1
     9    13     3    1
    10    25    10    1
    11    20     6    1
    12    21     7    1
    13    34    14    1
    14     7    11    1
    15     7     4    1
    16    27    11    1
    17     9     6    1
    18     9    11    1
    19     9     1    1
    20     6    10    1
    21     6     5    1
    22    10    14    1
    23    10    24    1
    24    28    12    1
    25     3     4    1
    26     3    12    1
    27     3     2    1
    28    11    26    1
    29    14    35    1
    30    14     8    1
    31    36    15    1
    32     4    18    1
    33     4     2    1
    34    12    29    1
    35    12    30    1
    36     1    42    1
    37     5     2    1
    38     5     8    1
    39     5    19    1
    40     2    17    1
    41    15     8    1
    42    15    37    1
    43    15    38    1
    44     8    23    1
@<TRIPOS>MOLECULE
11996452_5_run_1.pdb
 42 44 0 0 0
SMALL
GASTEIGER

@<TRIPOS>ATOM
      1    O       28.7140   -0.8500    5.6250 O.3     2  LIG2       -0.3886
      2    C       25.8830    2.2000    4.8420 C.3     2  LIG2       -0.0289
      3    C       25.2760    2.6080    3.5110 C.3     2  LIG2       -0.0284
      4    C       25.1100    1.1710    3.9850 C.3     2  LIG2       -0.0319
      5    C       27.3940    2.0440    5.2210 C.3     2  LIG2       -0.0294
      6    C       28.3670    1.2260    4.3290 C.3     2  LIG2       -0.0090
      7    C       25.8340   -0.0340    3.3370 C.3     2  LIG2       -0.0468
      8    C       28.1410    3.3510    5.6260 C.3     2  LIG2       -0.0404
      9    C       28.2050   -0.3290    4.4070 C.3     2  LIG2        0.0664
     10    C       29.7590    1.7670    4.7030 C.3     2  LIG2       -0.0471
     11    C       26.7330   -0.8170    4.3140 C.3     2  LIG2       -0.0237
     12    C       24.0250    3.5030    3.6050 C.3     2  LIG2       -0.0593
     13    C       26.0820    2.9420    2.2310 C.3     2  LIG2       -0.0593
     14    C       29.5370    3.2490    4.9910 C.3     2  LIG2       -0.0498
     15    C       27.4440    4.6810    5.2690 C.3     2  LIG2       -0.0621
     16    C       29.0410   -1.0100    3.2980 C.3     2  LIG2       -0.0358
     17    H       25.3500    2.5620    5.7230 H       2  LIG2        0.0312
     18    H       24.1050    0.8940    4.3040 H       2  LIG2        0.0309
     19    H       27.3490    1.4700    6.1500 H       2  LIG2        0.0310
     20    H       28.2330    1.5110    3.2960 H       2  LIG2        0.0331
     21    H       25.0560   -0.7200    2.9980 H       2  LIG2        0.0269
     22    H       26.3760    0.2240    2.4310 H       2  LIG2        0.0269
     23    H       28.2700    3.3510    6.7100 H       2  LIG2        0.0301
     24    H       30.1590    1.2730    5.5890 H       2  LIG2        0.0269
     25    H       30.4830    1.6270    3.8980 H       2  LIG2        0.0269
     26    H       26.2580   -0.7810    5.2970 H       2  LIG2        0.0293
     27    H       26.7130   -1.8720    4.0330 H       2  LIG2        0.0293
     28    H       23.3950    3.3940    2.7220 H       2  LIG2        0.0235
     29    H       24.3030    4.5540    3.6900 H       2  LIG2        0.0235
     30    H       23.4070    3.2630    4.4710 H       2  LIG2        0.0235
     31    H       25.4300    2.8910    1.3590 H       2  LIG2        0.0235
     32    H       26.9070    2.2830    2.0030 H       2  LIG2        0.0235
     33    H       26.4800    3.9550    2.2690 H       2  LIG2        0.0235
     34    H       29.5860    3.8180    4.0600 H       2  LIG2        0.0268
     35    H       30.3140    3.6430    5.6480 H       2  LIG2        0.0268
     36    H       27.3020    4.7910    4.1960 H       2  LIG2        0.0233
     37    H       28.0370    5.5300    5.6060 H       2  LIG2        0.0233
     38    H       26.4680    4.7620    5.7480 H       2  LIG2        0.0233
     39    H       28.7050   -0.7100    2.3050 H       2  LIG2        0.0257
     40    H       28.9770   -2.0980    3.3440 H       2  LIG2        0.0257
     41    H       30.0990   -0.7530    3.3710 H       2  LIG2        0.0257
     42    H       28.2820   -0.3990    6.3520 H       2  LIG2        0.2102
@<TRIPOS>BOND
     1    31    13    1
     2    32    13    1
     3    13    33    1
     4    13     3    1
     5    39    16    1
     6    22     7    1
     7    28    12    1
     8    21     7    1
     9    20     6    1
    10    16    40    1
    11    16    41    1
    12    16     9    1
    13     7     4    1
    14     7    11    1
    15     3    12    1
    16     3     4    1
    17     3     2    1
    18    12    29    1
    19    12    30    1
    20    25    10    1
    21     4    18    1
    22     4     2    1
    23    27    11    1
    24    34    14    1
    25    36    15    1
    26    11     9    1
    27    11    26    1
    28     6     9    1
    29     6    10    1
    30     6     5    1
    31     9     1    1
    32    10    14    1
    33    10    24    1
    34     2     5    1
    35     2    17    1
    36    14     8    1
    37    14    35    1
    38     5     8    1
    39     5    19    1
    40    15    37    1
    41    15     8    1
    42    15    38    1
    43     1    42    1
    44     8    23    1
@<TRIPOS>MOLECULE
11996452_5_run_9.pdb
 42 44 0 0 0
SMALL
GASTEIGER

@<TRIPOS>ATOM
      1    O       29.5450    2.6380    3.5920 O.3     2  LIG2       -0.3886
      2    C       25.4540    3.6890    3.2750 C.3     2  LIG2       -0.0289
      3    C       24.5380    4.2550    4.3450 C.3     2  LIG2       -0.0284
      4    C       25.8080    5.0140    3.9880 C.3     2  LIG2       -0.0319
      5    C       26.3570    2.4100    3.3370 C.3     2  LIG2       -0.0294
      6    C       27.3110    2.1560    4.5350 C.3     2  LIG2       -0.0090
      7    C       27.0380    5.1170    4.9230 C.3     2  LIG2       -0.0468
      8    C       25.6530    1.0550    3.0230 C.3     2  LIG2       -0.0404
      9    C       28.5990    3.0450    4.5690 C.3     2  LIG2        0.0664
     10    C       27.5550    0.6360    4.5010 C.3     2  LIG2       -0.0471
     11    C       28.3340    4.5540    4.3080 C.3     2  LIG2       -0.0237
     12    C       23.2170    4.8590    3.8280 C.3     2  LIG2       -0.0593
     13    C       24.3370    3.6490    5.7560 C.3     2  LIG2       -0.0593
     14    C       26.2360    0.0400    4.0190 C.3     2  LIG2       -0.0498
     15    C       24.1100    1.0600    3.0450 C.3     2  LIG2       -0.0621
     16    C       29.3260    2.8810    5.9250 C.3     2  LIG2       -0.0358
     17    H       25.0910    3.7960    2.2520 H       2  LIG2        0.0312
     18    H       25.6610    5.9440    3.4370 H       2  LIG2        0.0309
     19    H       27.0340    2.5550    2.4920 H       2  LIG2        0.0310
     20    H       26.7800    2.3250    5.4600 H       2  LIG2        0.0331
     21    H       27.2050    6.1790    5.1040 H       2  LIG2        0.0269
     22    H       26.8630    4.7000    5.9120 H       2  LIG2        0.0269
     23    H       25.9470    0.7400    2.0200 H       2  LIG2        0.0301
     24    H       28.3560    0.3710    3.8100 H       2  LIG2        0.0269
     25    H       27.8300    0.2430    5.4810 H       2  LIG2        0.0269
     26    H       28.3000    4.7530    3.2340 H       2  LIG2        0.0293
     27    H       29.1760    5.1430    4.6750 H       2  LIG2        0.0293
     28    H       22.8350    5.6150    4.5130 H       2  LIG2        0.0235
     29    H       22.4530    4.0880    3.7190 H       2  LIG2        0.0235
     30    H       23.3330    5.3380    2.8550 H       2  LIG2        0.0235
     31    H       23.8960    4.3930    6.4200 H       2  LIG2        0.0235
     32    H       25.2310    3.3160    6.2630 H       2  LIG2        0.0235
     33    H       23.6500    2.8040    5.7280 H       2  LIG2        0.0235
     34    H       25.5650   -0.1050    4.8680 H       2  LIG2        0.0268
     35    H       26.3900   -0.9390    3.5610 H       2  LIG2        0.0268
     36    H       23.7180    1.3290    4.0230 H       2  LIG2        0.0233
     37    H       23.7170    0.0730    2.7990 H       2  LIG2        0.0233
     38    H       23.7010    1.7570    2.3140 H       2  LIG2        0.0233
     39    H       28.6990    3.2070    6.7550 H       2  LIG2        0.0257
     40    H       30.2480    3.4630    5.9700 H       2  LIG2        0.0257
     41    H       29.5990    1.8420    6.1160 H       2  LIG2        0.0257
     42    H       30.2790    3.2560    3.6050 H       2  LIG2        0.2102
@<TRIPOS>BOND
     1    23     8    1
     2    17     2    1
     3    38    15    1
     4    19     5    1
     5    37    15    1
     6    30    12    1
     7     8    15    1
     8     8     5    1
     9     8    14    1
    10    15    36    1
    11    26    11    1
    12     2     5    1
    13     2     4    1
    14     2     3    1
    15     5     6    1
    16    18     4    1
    17    35    14    1
    18     1    42    1
    19     1     9    1
    20    29    12    1
    21    24    10    1
    22    12     3    1
    23    12    28    1
    24     4     3    1
    25     4     7    1
    26    14    10    1
    27    14    34    1
    28    11     9    1
    29    11    27    1
    30    11     7    1
    31     3    13    1
    32    10     6    1
    33    10    25    1
    34     6     9    1
    35     6    20    1
    36     9    16    1
    37     7    21    1
    38     7    22    1
    39    33    13    1
    40    13    32    1
    41    13    31    1
    42    16    40    1
    43    16    41    1
    44    16    39    1
@<TRIPOS>MOLECULE
11996452_5_run_1.pdb
 42 44 0 0 0
SMALL
GASTEIGER

@<TRIPOS>ATOM
      1    O       26.6660   -0.0140    2.1310 O.3     2  LIG2       -0.3886
      2    C       26.6870    4.0100    3.4530 C.3     2  LIG2       -0.0289
      3    C       27.3920    4.6050    4.6580 C.3     2  LIG2       -0.0284
      4    C       28.2190    3.8820    3.6050 C.3     2  LIG2       -0.0319
      5    C       25.7210    2.7780    3.3940 C.3     2  LIG2       -0.0294
      6    C       26.1000    1.4270    4.0580 C.3     2  LIG2       -0.0090
      7    C       28.8890    2.5050    3.8370 C.3     2  LIG2       -0.0468
      8    C       24.2290    3.0550    3.7500 C.3     2  LIG2       -0.0404
      9    C       27.1860    0.5880    3.3060 C.3     2  LIG2        0.0664
     10    C       24.7470    0.7230    4.2680 C.3     2  LIG2       -0.0471
     11    C       28.4220    1.4150    2.8530 C.3     2  LIG2       -0.0237
     12    C       27.4960    6.1430    4.6660 C.3     2  LIG2       -0.0593
     13    C       27.2890    4.0650    6.1060 C.3     2  LIG2       -0.0593
     14    C       23.7650    1.8480    4.5810 C.3     2  LIG2       -0.0498
     15    C       23.9280    4.3920    4.4600 C.3     2  LIG2       -0.0621
     16    C       27.6560   -0.5930    4.1880 C.3     2  LIG2       -0.0358
     17    H       26.3540    4.7340    2.7070 H       2  LIG2        0.0312
     18    H       28.8490    4.5190    2.9830 H       2  LIG2        0.0309
     19    H       25.6960    2.5450    2.3270 H       2  LIG2        0.0310
     20    H       26.4690    1.6080    5.0570 H       2  LIG2        0.0331
     21    H       29.9580    2.6460    3.6750 H       2  LIG2        0.0269
     22    H       28.8170    2.1590    4.8650 H       2  LIG2        0.0269
     23    H       23.6510    3.0600    2.8240 H       2  LIG2        0.0301
     24    H       24.4260    0.1900    3.3720 H       2  LIG2        0.0269
     25    H       24.7840   -0.0040    5.0810 H       2  LIG2        0.0269
     26    H       28.2230    1.9010    1.8950 H       2  LIG2        0.0293
     27    H       29.2610    0.7440    2.6570 H       2  LIG2        0.0293
     28    H       28.3490    6.4770    5.2560 H       2  LIG2        0.0235
     29    H       26.5980    6.5920    5.0920 H       2  LIG2        0.0235
     30    H       27.6190    6.5560    3.6640 H       2  LIG2        0.0235
     31    H       28.1110    4.4540    6.7060 H       2  LIG2        0.0235
     32    H       27.3410    2.9920    6.2180 H       2  LIG2        0.0235
     33    H       26.3660    4.3930    6.5840 H       2  LIG2        0.0235
     34    H       23.7920    2.0750    5.6490 H       2  LIG2        0.0268
     35    H       22.7420    1.5570    4.3410 H       2  LIG2        0.0268
     36    H       24.4350    4.4660    5.4200 H       2  LIG2        0.0233
     37    H       22.8590    4.4960    4.6510 H       2  LIG2        0.0233
     38    H       24.2280    5.2450    3.8530 H       2  LIG2        0.0233
     39    H       28.1170   -0.2410    5.1120 H       2  LIG2        0.0257
     40    H       28.3920   -1.2180    3.6790 H       2  LIG2        0.0257
     41    H       26.8270   -1.2440    4.4680 H       2  LIG2        0.0257
     42    H       27.3540   -0.5550    1.7370 H       2  LIG2        0.2102
@<TRIPOS>BOND
     1    42     1    1
     2    26    11    1
     3     1     9    1
     4    19     5    1
     5    27    11    1
     6    17     2    1
     7    23     8    1
     8    11     9    1
     9    11     7    1
    10    18     4    1
    11     9     6    1
    12     9    16    1
    13    24    10    1
    14     5     2    1
    15     5     8    1
    16     5     6    1
    17     2     4    1
    18     2     3    1
    19     4     7    1
    20     4     3    1
    21    30    12    1
    22    21     7    1
    23    40    16    1
    24     8    15    1
    25     8    14    1
    26     7    22    1
    27    38    15    1
    28     6    10    1
    29     6    20    1
    30    16    41    1
    31    16    39    1
    32    10    14    1
    33    10    25    1
    34    35    14    1
    35    15    37    1
    36    15    36    1
    37    14    34    1
    38     3    12    1
    39     3    13    1
    40    12    29    1
    41    12    28    1
    42    13    32    1
    43    13    33    1
    44    13    31    1
@<TRIPOS>MOLECULE
11996452_5_run_17.pdb
 42 44 0 0 0
SMALL
GASTEIGER

@<TRIPOS>ATOM
      1    O       30.1590    3.5510    4.8550 O.3     2  LIG2       -0.3886
      2    C       26.9470    1.8030    2.7180 C.3     2  LIG2       -0.0289
      3    C       25.4570    1.9260    2.9840 C.3     2  LIG2       -0.0284
      4    C       26.2660    3.1910    2.7380 C.3     2  LIG2       -0.0319
      5    C       28.0870    1.3890    3.7100 C.3     2  LIG2       -0.0294
      6    C       28.2140    2.0470    5.1100 C.3     2  LIG2       -0.0090
      7    C       26.5940    4.2270    3.8390 C.3     2  LIG2       -0.0468
      8    C       28.3040   -0.1420    3.9070 C.3     2  LIG2       -0.0404
      9    C       28.7640    3.5120    5.1170 C.3     2  LIG2        0.0664
     10    C       29.0270    1.0280    5.9280 C.3     2  LIG2       -0.0471
     11    C       28.1040    4.4420    4.0610 C.3     2  LIG2       -0.0237
     12    C       24.5440    1.4680    1.8290 C.3     2  LIG2       -0.0593
     13    C       24.7720    1.6650    4.3480 C.3     2  LIG2       -0.0593
     14    C       28.5840   -0.3350    5.4070 C.3     2  LIG2       -0.0498
     15    C       27.1730   -1.0680    3.4110 C.3     2  LIG2       -0.0621
     16    C       28.6020    4.1380    6.5230 C.3     2  LIG2       -0.0358
     17    H       27.2110    1.4300    1.7270 H       2  LIG2        0.0312
     18    H       26.0880    3.6850    1.7820 H       2  LIG2        0.0309
     19    H       28.9880    1.7150    3.1860 H       2  LIG2        0.0310
     20    H       27.2450    2.0670    5.5870 H       2  LIG2        0.0331
     21    H       26.1810    5.1800    3.5050 H       2  LIG2        0.0269
     22    H       26.0860    4.0310    4.7800 H       2  LIG2        0.0269
     23    H       29.2040   -0.4340    3.3630 H       2  LIG2        0.0301
     24    H       30.1000    1.1530    5.7750 H       2  LIG2        0.0269
     25    H       28.8410    1.1190    7.0000 H       2  LIG2        0.0269
     26    H       28.5970    4.3270    3.0930 H       2  LIG2        0.0293
     27    H       28.2690    5.4850    4.3370 H       2  LIG2        0.0293
     28    H       23.5770    1.9700    1.8690 H       2  LIG2        0.0235
     29    H       24.3650    0.3930    1.8770 H       2  LIG2        0.0235
     30    H       24.9740    1.6800    0.8500 H       2  LIG2        0.0235
     31    H       23.7810    2.1170    4.3570 H       2  LIG2        0.0235
     32    H       25.2730    2.0680    5.2160 H       2  LIG2        0.0235
     33    H       24.6350    0.5990    4.5230 H       2  LIG2        0.0235
     34    H       27.6840   -0.6580    5.9350 H       2  LIG2        0.0268
     35    H       29.3490   -1.0930    5.5840 H       2  LIG2        0.0268
     36    H       26.2340   -0.8760    3.9270 H       2  LIG2        0.0233
     37    H       27.4270   -2.1140    3.5810 H       2  LIG2        0.0233
     38    H       27.0000   -0.9510    2.3410 H       2  LIG2        0.0233
     39    H       27.5530    4.1970    6.8130 H       2  LIG2        0.0257
     40    H       29.0080    5.1500    6.5710 H       2  LIG2        0.0257
     41    H       29.1160    3.5550    7.2880 H       2  LIG2        0.0257
     42    H       30.2900    3.5360    3.9050 H       2  LIG2        0.2102
@<TRIPOS>BOND
     1    30    12    1
     2    17     2    1
     3    18     4    1
     4    12    28    1
     5    12    29    1
     6    12     3    1
     7    38    15    1
     8     2     4    1
     9     2     3    1
    10     2     5    1
    11     4     3    1
    12     4     7    1
    13     3    13    1
    14    26    11    1
    15    19     5    1
    16    23     8    1
    17    15    37    1
    18    15     8    1
    19    15    36    1
    20    21     7    1
    21     5     8    1
    22     5     6    1
    23     7    11    1
    24     7    22    1
    25    42     1    1
    26     8    14    1
    27    11    27    1
    28    11     9    1
    29    13    31    1
    30    13    33    1
    31    13    32    1
    32     1     9    1
    33     6     9    1
    34     6    20    1
    35     6    10    1
    36     9    16    1
    37    14    35    1
    38    14    10    1
    39    14    34    1
    40    24    10    1
    41    10    25    1
    42    16    40    1
    43    16    39    1
    44    16    41    1
@<TRIPOS>MOLECULE
11996452_5_run_9.pdb
 42 44 0 0 0
SMALL
GASTEIGER

@<TRIPOS>ATOM
      1    O       27.8490   -1.0750    1.7510 O.3     2  LIG2       -0.3886
      2    C       28.4250    2.6230    3.7320 C.3     2  LIG2       -0.0289
      3    C       28.5810    2.8850    5.2200 C.3     2  LIG2       -0.0284
      4    C       29.5580    1.9420    4.5330 C.3     2  LIG2       -0.0319
      5    C       27.2970    1.8290    2.9920 C.3     2  LIG2       -0.0294
      6    C       26.8670    0.4140    3.4620 C.3     2  LIG2       -0.0090
      7    C       29.5720    0.4100    4.7550 C.3     2  LIG2       -0.0468
      8    C       25.9900    2.6210    2.6810 C.3     2  LIG2       -0.0404
      9    C       27.8710   -0.7390    3.1300 C.3     2  LIG2        0.0664
     10    C       25.4490    0.2450    2.8870 C.3     2  LIG2       -0.0471
     11    C       29.3510   -0.4060    3.4660 C.3     2  LIG2       -0.0237
     12    C       29.1270    4.2780    5.5890 C.3     2  LIG2       -0.0593
     13    C       27.6150    2.3760    6.3180 C.3     2  LIG2       -0.0593
     14    C       24.8350    1.6410    2.9450 C.3     2  LIG2       -0.0498
     15    C       25.7950    3.9530    3.4350 C.3     2  LIG2       -0.0621
     16    C       27.4590   -2.0360    3.8650 C.3     2  LIG2       -0.0358
     17    H       28.7440    3.4410    3.0830 H       2  LIG2        0.0312
     18    H       30.5720    2.3240    4.4080 H       2  LIG2        0.0309
     19    H       27.7360    1.6540    2.0070 H       2  LIG2        0.0310
     20    H       26.7270    0.4180    4.5330 H       2  LIG2        0.0331
     21    H       30.5660    0.1570    5.1280 H       2  LIG2        0.0269
     22    H       28.8990    0.0830    5.5430 H       2  LIG2        0.0269
     23    H       25.9800    2.8630    1.6170 H       2  LIG2        0.0301
     24    H       25.4710   -0.1070    1.8550 H       2  LIG2        0.0269
     25    H       24.8560   -0.4700    3.4600 H       2  LIG2        0.0269
     26    H       29.8120    0.1480    2.6440 H       2  LIG2        0.0293
     27    H       29.9280   -1.3300    3.5380 H       2  LIG2        0.0293
     28    H       29.6290    4.2610    6.5560 H       2  LIG2        0.0235
     29    H       28.3200    5.0100    5.6440 H       2  LIG2        0.0235
     30    H       29.8490    4.6480    4.8600 H       2  LIG2        0.0235
     31    H       28.1040    2.4210    7.2910 H       2  LIG2        0.0235
     32    H       27.2780    1.3550    6.2200 H       2  LIG2        0.0235
     33    H       26.7260    3.0030    6.3820 H       2  LIG2        0.0235
     34    H       24.3950    1.8100    3.9300 H       2  LIG2        0.0268
     35    H       24.0330    1.7490    2.2130 H       2  LIG2        0.0268
     36    H       25.7550    3.8080    4.5130 H       2  LIG2        0.0233
     37    H       24.8630    4.4330    3.1380 H       2  LIG2        0.0233
     38    H       26.6000    4.6560    3.2190 H       2  LIG2        0.0233
     39    H       27.4820   -1.9040    4.9480 H       2  LIG2        0.0257
     40    H       28.1210   -2.8710    3.6290 H       2  LIG2        0.0257
     41    H       26.4480   -2.3500    3.6000 H       2  LIG2        0.0257
     42    H       27.0350   -1.5480    1.5670 H       2  LIG2        0.2102
@<TRIPOS>BOND
     1    42     1    1
     2    23     8    1
     3     1     9    1
     4    24    10    1
     5    19     5    1
     6    35    14    1
     7    26    11    1
     8     8    14    1
     9     8     5    1
    10     8    15    1
    11    10    14    1
    12    10    25    1
    13    10     6    1
    14    14    34    1
    15     5     6    1
    16     5     2    1
    17    17     2    1
    18     9     6    1
    19     9    11    1
    20     9    16    1
    21    37    15    1
    22    38    15    1
    23    15    36    1
    24     6    20    1
    25    11    27    1
    26    11     7    1
    27    41    16    1
    28    40    16    1
    29     2     4    1
    30     2     3    1
    31    16    39    1
    32    18     4    1
    33     4     7    1
    34     4     3    1
    35     7    21    1
    36     7    22    1
    37    30    12    1
    38     3    12    1
    39     3    13    1
    40    12    29    1
    41    12    28    1
    42    32    13    1
    43    13    33    1
    44    13    31    1
@<TRIPOS>MOLECULE
11996452_5_run_8.pdb
 42 44 0 0 0
SMALL
GASTEIGER

@<TRIPOS>ATOM
      1    O       24.8180   -0.1090    3.0350 O.3     2  LIG2       -0.3886
      2    C       27.3700    2.1330    5.5640 C.3     2  LIG2       -0.0289
      3    C       27.9890    3.4970    5.3140 C.3     2  LIG2       -0.0284
      4    C       26.4740    3.3580    5.2720 C.3     2  LIG2       -0.0319
      5    C       27.4110    0.8590    4.6540 C.3     2  LIG2       -0.0294
      6    C       27.0550    0.9360    3.1450 C.3     2  LIG2       -0.0090
      7    C       25.6400    3.4480    3.9710 C.3     2  LIG2       -0.0468
      8    C       28.6840   -0.0320    4.7750 C.3     2  LIG2       -0.0404
      9    C       25.5330    1.0980    2.8200 C.3     2  LIG2        0.0664
     10    C       27.7350   -0.3050    2.5390 C.3     2  LIG2       -0.0471
     11    C       24.8150    2.1800    3.6740 C.3     2  LIG2       -0.0237
     12    C       28.5730    4.1930    6.5600 C.3     2  LIG2       -0.0593
     13    C       28.7930    3.8910    4.0500 C.3     2  LIG2       -0.0593
     14    C       29.0200   -0.4790    3.3430 C.3     2  LIG2       -0.0498
     15    C       29.9030    0.6000    5.4800 C.3     2  LIG2       -0.0621
     16    C       25.3380    1.4180    1.3190 C.3     2  LIG2       -0.0358
     17    H       27.3810    1.8050    6.6050 H       2  LIG2        0.0312
     18    H       25.9370    3.8080    6.1080 H       2  LIG2        0.0309
     19    H       26.6170    0.2390    5.0770 H       2  LIG2        0.0310
     20    H       27.5700    1.7740    2.6970 H       2  LIG2        0.0331
     21    H       24.9320    4.2660    4.1080 H       2  LIG2        0.0269
     22    H       26.2250    3.7440    3.1040 H       2  LIG2        0.0269
     23    H       28.4250   -0.9250    5.3480 H       2  LIG2        0.0301
     24    H       27.1120   -1.1940    2.6370 H       2  LIG2        0.0269
     25    H       27.9510   -0.1770    1.4760 H       2  LIG2        0.0269
     26    H       24.5020    1.7610    4.6330 H       2  LIG2        0.0293
     27    H       23.8870    2.4790    3.1830 H       2  LIG2        0.0293
     28    H       28.5810    5.2760    6.4390 H       2  LIG2        0.0235
     29    H       29.5990    3.8690    6.7410 H       2  LIG2        0.0235
     30    H       28.0020    3.9750    7.4630 H       2  LIG2        0.0235
     31    H       28.8490    4.9770    3.9710 H       2  LIG2        0.0235
     32    H       28.3860    3.5600    3.1060 H       2  LIG2        0.0235
     33    H       29.8170    3.5250    4.1050 H       2  LIG2        0.0235
     34    H       29.8100    0.1400    2.9150 H       2  LIG2        0.0268
     35    H       29.3680   -1.5130    3.3100 H       2  LIG2        0.0268
     36    H       30.2610    1.4840    4.9580 H       2  LIG2        0.0233
     37    H       30.7320   -0.1070    5.5260 H       2  LIG2        0.0233
     38    H       29.6690    0.8850    6.5060 H       2  LIG2        0.0233
     39    H       25.8170    2.3590    1.0470 H       2  LIG2        0.0257
     40    H       24.2840    1.5050    1.0510 H       2  LIG2        0.0257
     41    H       25.7640    0.6430    0.6800 H       2  LIG2        0.0257
     42    H       24.9120   -0.3570    3.9570 H       2  LIG2        0.2102
@<TRIPOS>BOND
     1    41    16    1
     2    39    16    1
     3    40    16    1
     4    16     9    1
     5    25    10    1
     6    10    24    1
     7    10     6    1
     8    10    14    1
     9    20     6    1
    10     9     1    1
    11     9     6    1
    12     9    11    1
    13    34    14    1
    14     1    42    1
    15    22     7    1
    16    32    13    1
    17     6     5    1
    18    27    11    1
    19    35    14    1
    20    14     8    1
    21    11     7    1
    22    11    26    1
    23     7    21    1
    24     7     4    1
    25    31    13    1
    26    13    33    1
    27    13     3    1
    28     5     8    1
    29     5    19    1
    30     5     2    1
    31     8    23    1
    32     8    15    1
    33    36    15    1
    34     4     3    1
    35     4     2    1
    36     4    18    1
    37     3     2    1
    38     3    12    1
    39    15    37    1
    40    15    38    1
    41     2    17    1
    42    28    12    1
    43    12    29    1
    44    12    30    1
