@<TRIPOS>MOLECULE
11996452_4_run_21.pdb
 42 44 0 0 0
SMALL
GASTEIGER

@<TRIPOS>ATOM
      1    O       26.7250    4.3930    6.2910 O.3     2  LIG2       -0.3886
      2    C       27.2880    1.6730    3.3150 C.3     2  LIG2       -0.0289
      3    C       28.2490    0.5910    3.7730 C.3     2  LIG2       -0.0284
      4    C       28.7400    2.0190    3.6660 C.3     2  LIG2       -0.0319
      5    C       26.1670    2.2600    4.2110 C.3     2  LIG2       -0.0294
      6    C       26.0550    3.7980    4.0200 C.3     2  LIG2       -0.0090
      7    C       29.0280    2.9310    4.8810 C.3     2  LIG2       -0.0468
      8    C       24.7410    1.6680    4.0110 C.3     2  LIG2       -0.0404
      9    C       27.0030    4.6600    4.9250 C.3     2  LIG2        0.0664
     10    C       24.5490    4.0890    4.1640 C.3     2  LIG2       -0.0471
     11    C       28.5210    4.3810    4.7030 C.3     2  LIG2       -0.0237
     12    C       28.0830   -0.1040    5.1430 C.3     2  LIG2       -0.0593
     13    C       28.7300   -0.3960    2.6930 C.3     2  LIG2       -0.0593
     14    C       23.8530    2.8520    3.6050 C.3     2  LIG2       -0.0498
     15    C       24.6220    0.4750    3.0400 C.3     2  LIG2       -0.0621
     16    C       26.7530    6.1740    4.7290 C.3     2  LIG2       -0.0358
     17    H       27.0320    1.7220    2.2560 H       2  LIG2        0.0312
     18    H       29.4430    2.2170    2.8550 H       2  LIG2        0.0309
     19    H       26.4060    2.0770    5.2560 H       2  LIG2        0.0310
     20    H       26.3060    4.0350    2.9840 H       2  LIG2        0.0331
     21    H       28.6480    2.5240    5.8150 H       2  LIG2        0.0269
     22    H       30.1110    2.9690    5.0090 H       2  LIG2        0.0269
     23    H       24.3830    1.3170    4.9810 H       2  LIG2        0.0301
     24    H       24.2750    4.2360    5.2100 H       2  LIG2        0.0269
     25    H       24.2520    4.9860    3.6180 H       2  LIG2        0.0269
     26    H       29.0990    5.0260    5.3670 H       2  LIG2        0.0293
     27    H       28.7930    4.7080    3.6970 H       2  LIG2        0.0293
     28    H       29.0280   -0.5370    5.4710 H       2  LIG2        0.0235
     29    H       27.3560   -0.9140    5.0770 H       2  LIG2        0.0235
     30    H       27.7470    0.5500    5.9440 H       2  LIG2        0.0235
     31    H       29.6980   -0.8230    2.9550 H       2  LIG2        0.0235
     32    H       28.8400    0.0840    1.7180 H       2  LIG2        0.0235
     33    H       28.0230   -1.2150    2.5710 H       2  LIG2        0.0235
     34    H       23.7750    2.9250    2.5180 H       2  LIG2        0.0268
     35    H       22.8400    2.7570    3.9960 H       2  LIG2        0.0268
     36    H       24.9030    0.7480    2.0220 H       2  LIG2        0.0233
     37    H       23.5990    0.1020    3.0060 H       2  LIG2        0.0233
     38    H       25.2600   -0.3530    3.3540 H       2  LIG2        0.0233
     39    H       26.9260    6.4710    3.6940 H       2  LIG2        0.0257
     40    H       27.4100    6.7790    5.3550 H       2  LIG2        0.0257
     41    H       25.7300    6.4570    4.9820 H       2  LIG2        0.0257
     42    H       27.2060    5.0280    6.8280 H       2  LIG2        0.2102
@<TRIPOS>BOND
     1    32    13    1
     2    36    15    1
     3    17     2    1
     4    34    14    1
     5    33    13    1
     6    13    31    1
     7    13     3    1
     8    18     4    1
     9    20     6    1
    10    37    15    1
    11    15    38    1
    12    15     8    1
    13     2     4    1
    14     2     3    1
    15     2     5    1
    16    14    35    1
    17    14     8    1
    18    14    10    1
    19    25    10    1
    20     4     3    1
    21     4     7    1
    22    39    16    1
    23    27    11    1
    24     3    12    1
    25     8     5    1
    26     8    23    1
    27     6    10    1
    28     6     5    1
    29     6     9    1
    30    10    24    1
    31     5    19    1
    32    11     7    1
    33    11     9    1
    34    11    26    1
    35    16     9    1
    36    16    41    1
    37    16    40    1
    38     7    22    1
    39     7    21    1
    40     9     1    1
    41    29    12    1
    42    12    28    1
    43    12    30    1
    44     1    42    1
@<TRIPOS>MOLECULE
11996452_4_run_15.pdb
 42 44 0 0 0
SMALL
GASTEIGER

@<TRIPOS>ATOM
      1    O       26.4060    4.0780    2.6600 O.3     2  LIG2       -0.3886
      2    C       27.2770    0.4990    4.3950 C.3     2  LIG2       -0.0289
      3    C       27.2720   -0.6010    3.3500 C.3     2  LIG2       -0.0284
      4    C       25.9890    0.1470    3.6420 C.3     2  LIG2       -0.0319
      5    C       27.8930    1.9020    4.1590 C.3     2  LIG2       -0.0294
      6    C       26.9950    3.0110    4.7760 C.3     2  LIG2       -0.0090
      7    C       25.3580    1.1910    2.6920 C.3     2  LIG2       -0.0468
      8    C       29.3350    2.1260    4.7030 C.3     2  LIG2       -0.0404
      9    C       25.8460    3.5400    3.8490 C.3     2  LIG2        0.0664
     10    C       27.9920    4.0730    5.2740 C.3     2  LIG2       -0.0471
     11    C       24.8210    2.4460    3.4190 C.3     2  LIG2       -0.0237
     12    C       28.0140   -0.4350    2.0040 C.3     2  LIG2       -0.0593
     13    C       27.3750   -2.0450    3.8780 C.3     2  LIG2       -0.0593
     14    C       29.2260    3.2850    5.7030 C.3     2  LIG2       -0.0498
     15    C       30.0420    0.8910    5.2990 C.3     2  LIG2       -0.0621
     16    C       25.0680    4.7000    4.5140 C.3     2  LIG2       -0.0358
     17    H       27.3060    0.2120    5.4470 H       2  LIG2        0.0312
     18    H       25.2170   -0.4240    4.1610 H       2  LIG2        0.0309
     19    H       27.9600    2.0930    3.0900 H       2  LIG2        0.0310
     20    H       26.5170    2.6070    5.6720 H       2  LIG2        0.0331
     21    H       26.0280    1.4930    1.8900 H       2  LIG2        0.0269
     22    H       24.5170    0.7090    2.1920 H       2  LIG2        0.0269
     23    H       29.9570    2.4720    3.8750 H       2  LIG2        0.0301
     24    H       28.2490    4.7750    4.4800 H       2  LIG2        0.0269
     25    H       27.5900    4.6530    6.1070 H       2  LIG2        0.0269
     26    H       24.0600    2.9050    2.7840 H       2  LIG2        0.0293
     27    H       24.2760    2.1110    4.3030 H       2  LIG2        0.0293
     28    H       27.5990   -1.1070    1.2510 H       2  LIG2        0.0235
     29    H       29.0700   -0.6800    2.1160 H       2  LIG2        0.0235
     30    H       27.9700    0.5660    1.5840 H       2  LIG2        0.0235
     31    H       26.9300   -2.7520    3.1780 H       2  LIG2        0.0235
     32    H       26.8630   -2.1690    4.8340 H       2  LIG2        0.0235
     33    H       28.4150   -2.3310    4.0300 H       2  LIG2        0.0235
     34    H       29.0980    2.9110    6.7210 H       2  LIG2        0.0268
     35    H       30.1180    3.9130    5.6980 H       2  LIG2        0.0268
     36    H       29.5220    0.5060    6.1770 H       2  LIG2        0.0233
     37    H       31.0590    1.1360    5.6050 H       2  LIG2        0.0233
     38    H       30.1090    0.0840    4.5670 H       2  LIG2        0.0233
     39    H       24.6140    4.3820    5.4540 H       2  LIG2        0.0257
     40    H       24.2670    5.0710    3.8740 H       2  LIG2        0.0257
     41    H       25.7130    5.5520    4.7360 H       2  LIG2        0.0257
     42    H       26.9130    4.8590    2.8910 H       2  LIG2        0.2102
@<TRIPOS>BOND
     1    28    12    1
     2    30    12    1
     3    21     7    1
     4    12    29    1
     5    12     3    1
     6    22     7    1
     7     1    42    1
     8     1     9    1
     9     7    11    1
    10     7     4    1
    11    26    11    1
    12    19     5    1
    13    31    13    1
    14     3     4    1
    15     3    13    1
    16     3     2    1
    17    11     9    1
    18    11    27    1
    19     4    18    1
    20     4     2    1
    21     9    16    1
    22     9     6    1
    23    40    16    1
    24    23     8    1
    25    13    33    1
    26    13    32    1
    27     5     2    1
    28     5     8    1
    29     5     6    1
    30     2    17    1
    31    24    10    1
    32    16    41    1
    33    16    39    1
    34    38    15    1
    35     8    15    1
    36     8    14    1
    37     6    10    1
    38     6    20    1
    39    10    14    1
    40    10    25    1
    41    15    37    1
    42    15    36    1
    43    35    14    1
    44    14    34    1
@<TRIPOS>MOLECULE
11996452_4_run_6.pdb
 42 44 0 0 0
SMALL
GASTEIGER

@<TRIPOS>ATOM
      1    O       29.6620    1.6420    3.3250 O.3     2  LIG2       -0.3886
      2    C       26.1540    3.0630    4.8250 C.3     2  LIG2       -0.0289
      3    C       25.9580    4.5100    4.4090 C.3     2  LIG2       -0.0284
      4    C       27.1290    4.1490    5.2980 C.3     2  LIG2       -0.0319
      5    C       26.6980    1.9650    3.8750 C.3     2  LIG2       -0.0294
      6    C       27.6880    1.0280    4.6240 C.3     2  LIG2       -0.0090
      7    C       28.5990    4.1040    4.8210 C.3     2  LIG2       -0.0468
      8    C       25.6370    1.0550    3.1890 C.3     2  LIG2       -0.0404
      9    C       29.1800    1.5100    4.6540 C.3     2  LIG2        0.0664
     10    C       27.4470   -0.3570    3.9950 C.3     2  LIG2       -0.0471
     11    C       29.3890    2.8870    5.3560 C.3     2  LIG2       -0.0237
     12    C       26.1650    4.9600    2.9450 C.3     2  LIG2       -0.0593
     13    C       24.7840    5.2560    5.0700 C.3     2  LIG2       -0.0593
     14    C       25.9650   -0.3760    3.6370 C.3     2  LIG2       -0.0498
     15    C       24.1580    1.4280    3.4240 C.3     2  LIG2       -0.0621
     16    C       30.0990    0.4710    5.3380 C.3     2  LIG2       -0.0358
     17    H       25.4940    2.6520    5.5900 H       2  LIG2        0.0312
     18    H       27.0640    4.4980    6.3290 H       2  LIG2        0.0309
     19    H       27.2440    2.4300    3.0580 H       2  LIG2        0.0310
     20    H       27.3620    0.9440    5.6630 H       2  LIG2        0.0331
     21    H       28.6940    4.1540    3.7390 H       2  LIG2        0.0269
     22    H       29.0870    5.0080    5.1890 H       2  LIG2        0.0269
     23    H       25.8030    1.1000    2.1110 H       2  LIG2        0.0301
     24    H       28.0540   -0.4930    3.0990 H       2  LIG2        0.0269
     25    H       27.6940   -1.1670    4.6840 H       2  LIG2        0.0269
     26    H       30.4520    3.1370    5.3330 H       2  LIG2        0.0293
     27    H       29.1540    2.7780    6.4160 H       2  LIG2        0.0293
     28    H       26.3690    6.0310    2.8990 H       2  LIG2        0.0235
     29    H       25.2680    4.7710    2.3550 H       2  LIG2        0.0235
     30    H       26.9850    4.4660    2.4310 H       2  LIG2        0.0235
     31    H       24.9630    6.3320    5.0880 H       2  LIG2        0.0235
     32    H       24.6220    4.9370    6.1010 H       2  LIG2        0.0235
     33    H       23.8550    5.0790    4.5290 H       2  LIG2        0.0235
     34    H       25.3710   -0.6560    4.5100 H       2  LIG2        0.0268
     35    H       25.7550   -1.1070    2.8550 H       2  LIG2        0.0268
     36    H       23.8800    1.3530    4.4760 H       2  LIG2        0.0233
     37    H       23.4970    0.7670    2.8650 H       2  LIG2        0.0233
     38    H       23.9520    2.4480    3.0940 H       2  LIG2        0.0233
     39    H       29.7910    0.2900    6.3690 H       2  LIG2        0.0257
     40    H       31.1380    0.8030    5.3630 H       2  LIG2        0.0257
     41    H       30.0880   -0.4890    4.8210 H       2  LIG2        0.0257
     42    H       30.6200    1.7050    3.3550 H       2  LIG2        0.2102
@<TRIPOS>BOND
     1    23     8    1
     2    29    12    1
     3    30    12    1
     4    35    14    1
     5    37    15    1
     6    28    12    1
     7    12     3    1
     8    19     5    1
     9    38    15    1
    10    24    10    1
    11     8    15    1
    12     8    14    1
    13     8     5    1
    14     1    42    1
    15     1     9    1
    16    15    36    1
    17    14    10    1
    18    14    34    1
    19    21     7    1
    20     5     6    1
    21     5     2    1
    22    10     6    1
    23    10    25    1
    24     3     2    1
    25     3    13    1
    26     3     4    1
    27    33    13    1
    28     6     9    1
    29     6    20    1
    30     9    16    1
    31     9    11    1
    32    41    16    1
    33     7    22    1
    34     7     4    1
    35     7    11    1
    36     2     4    1
    37     2    17    1
    38    13    31    1
    39    13    32    1
    40     4    18    1
    41    26    11    1
    42    16    40    1
    43    16    39    1
    44    11    27    1
@<TRIPOS>MOLECULE
11996452_4_run_11.pdb
 42 44 0 0 0
SMALL
GASTEIGER

@<TRIPOS>ATOM
      1    O       25.8490   -0.5900    5.0660 O.3     2  LIG2       -0.3886
      2    C       27.0820    3.0600    3.7520 C.3     2  LIG2       -0.0289
      3    C       25.9420    4.0580    3.8390 C.3     2  LIG2       -0.0284
      4    C       25.8130    2.8670    2.9130 C.3     2  LIG2       -0.0319
      5    C       27.3900    2.0120    4.8510 C.3     2  LIG2       -0.0294
      6    C       27.7770    0.6450    4.2200 C.3     2  LIG2       -0.0090
      7    C       24.9020    1.6480    3.1890 C.3     2  LIG2       -0.0468
      8    C       28.5120    2.3810    5.8660 C.3     2  LIG2       -0.0404
      9    C       26.5760   -0.3050    3.8810 C.3     2  LIG2        0.0664
     10    C       28.8330    0.0680    5.1810 C.3     2  LIG2       -0.0471
     11    C       25.5640    0.2910    2.8550 C.3     2  LIG2       -0.0237
     12    C       25.0800    4.1830    5.1160 C.3     2  LIG2       -0.0593
     13    C       26.1840    5.4300    3.1820 C.3     2  LIG2       -0.0593
     14    C       29.5760    1.2840    5.7260 C.3     2  LIG2       -0.0498
     15    C       29.1040    3.8010    5.7470 C.3     2  LIG2       -0.0621
     16    C       27.0660   -1.6710    3.3440 C.3     2  LIG2       -0.0358
     17    H       27.9780    3.3460    3.1980 H       2  LIG2        0.0312
     18    H       25.8490    3.0920    1.8460 H       2  LIG2        0.0309
     19    H       26.5020    1.8510    5.4580 H       2  LIG2        0.0310
     20    H       28.3020    0.8370    3.2810 H       2  LIG2        0.0331
     21    H       24.5210    1.6270    4.2080 H       2  LIG2        0.0269
     22    H       24.0190    1.7540    2.5580 H       2  LIG2        0.0269
     23    H       28.0970    2.3000    6.8720 H       2  LIG2        0.0301
     24    H       28.3630   -0.4840    5.9960 H       2  LIG2        0.0269
     25    H       29.5180   -0.6140    4.6750 H       2  LIG2        0.0269
     26    H       24.7710   -0.4380    2.6780 H       2  LIG2        0.0293
     27    H       26.0640    0.3930    1.8900 H       2  LIG2        0.0293
     28    H       24.1120    4.6290    4.8840 H       2  LIG2        0.0235
     29    H       25.5710    4.8270    5.8470 H       2  LIG2        0.0235
     30    H       24.8760    3.2420    5.6190 H       2  LIG2        0.0235
     31    H       25.2430    5.8970    2.8890 H       2  LIG2        0.0235
     32    H       26.8010    5.3530    2.2860 H       2  LIG2        0.0235
     33    H       26.6950    6.1050    3.8680 H       2  LIG2        0.0235
     34    H       30.3600    1.5880    5.0290 H       2  LIG2        0.0268
     35    H       30.0590    1.0590    6.6780 H       2  LIG2        0.0268
     36    H       29.5990    3.9590    4.7880 H       2  LIG2        0.0233
     37    H       29.8430    3.9820    6.5270 H       2  LIG2        0.0233
     38    H       28.3280    4.5610    5.8530 H       2  LIG2        0.0233
     39    H       27.6550   -1.5480    2.4340 H       2  LIG2        0.0257
     40    H       26.2340   -2.3350    3.1060 H       2  LIG2        0.0257
     41    H       27.6900   -2.1960    4.0680 H       2  LIG2        0.0257
     42    H       25.4660    0.2280    5.3920 H       2  LIG2        0.2102
@<TRIPOS>BOND
     1    18     4    1
     2    27    11    1
     3    32    13    1
     4    39    16    1
     5    22     7    1
     6    26    11    1
     7    11     7    1
     8    11     9    1
     9    31    13    1
    10     4     7    1
    11     4     2    1
    12     4     3    1
    13    40    16    1
    14    13     3    1
    15    13    33    1
    16     7    21    1
    17    17     2    1
    18    20     6    1
    19    16     9    1
    20    16    41    1
    21     2     3    1
    22     2     5    1
    23     3    12    1
    24     9     6    1
    25     9     1    1
    26     6     5    1
    27     6    10    1
    28    25    10    1
    29    36    15    1
    30     5    19    1
    31     5     8    1
    32    28    12    1
    33    34    14    1
    34     1    42    1
    35    12    30    1
    36    12    29    1
    37    10    14    1
    38    10    24    1
    39    14     8    1
    40    14    35    1
    41    15    38    1
    42    15     8    1
    43    15    37    1
    44     8    23    1
@<TRIPOS>MOLECULE
11996452_4_run_16.pdb
 42 44 0 0 0
SMALL
GASTEIGER

@<TRIPOS>ATOM
      1    O       25.0910    5.9770    5.5290 O.3     2  LIG2       -0.3886
      2    C       27.1850    3.0270    3.6620 C.3     2  LIG2       -0.0289
      3    C       28.4990    2.7850    4.3810 C.3     2  LIG2       -0.0284
      4    C       28.2470    4.1310    3.7350 C.3     2  LIG2       -0.0319
      5    C       25.8390    3.2680    4.3930 C.3     2  LIG2       -0.0294
      6    C       25.0160    4.3800    3.6840 C.3     2  LIG2       -0.0090
      7    C       27.9380    5.4270    4.5190 C.3     2  LIG2       -0.0468
      8    C       24.9030    2.0320    4.5450 C.3     2  LIG2       -0.0404
      9    C       25.3360    5.8460    4.1370 C.3     2  LIG2        0.0664
     10    C       23.5520    3.9340    3.8530 C.3     2  LIG2       -0.0471
     11    C       26.8130    6.2810    3.8890 C.3     2  LIG2       -0.0237
     12    C       28.5570    2.6280    5.9180 C.3     2  LIG2       -0.0593
     13    C       29.5000    1.8490    3.6790 C.3     2  LIG2       -0.0593
     14    C       23.5980    2.4090    3.8300 C.3     2  LIG2       -0.0498
     15    C       25.4710    0.6790    4.0710 C.3     2  LIG2       -0.0621
     16    C       24.4060    6.8710    3.4440 C.3     2  LIG2       -0.0358
     17    H       27.0410    2.5700    2.6820 H       2  LIG2        0.0312
     18    H       28.8420    4.3460    2.8460 H       2  LIG2        0.0309
     19    H       26.0330    3.6030    5.4090 H       2  LIG2        0.0310
     20    H       25.2210    4.3280    2.6120 H       2  LIG2        0.0331
     21    H       27.7130    5.2430    5.5670 H       2  LIG2        0.0269
     22    H       28.8490    6.0260    4.5260 H       2  LIG2        0.0269
     23    H       24.6670    1.9180    5.6050 H       2  LIG2        0.0301
     24    H       23.1400    4.2850    4.8000 H       2  LIG2        0.0269
     25    H       22.9130    4.3180    3.0560 H       2  LIG2        0.0269
     26    H       26.9400    7.3110    4.2280 H       2  LIG2        0.0293
     27    H       26.9900    6.3220    2.8130 H       2  LIG2        0.0293
     28    H       29.5570    2.8530    6.2900 H       2  LIG2        0.0235
     29    H       28.3220    1.6030    6.2070 H       2  LIG2        0.0235
     30    H       27.8710    3.2690    6.4650 H       2  LIG2        0.0235
     31    H       30.5230    2.0670    3.9850 H       2  LIG2        0.0235
     32    H       29.4590    1.9450    2.5920 H       2  LIG2        0.0235
     33    H       29.2920    0.8060    3.9180 H       2  LIG2        0.0235
     34    H       23.6010    2.0490    2.8000 H       2  LIG2        0.0268
     35    H       22.7240    1.9790    4.3220 H       2  LIG2        0.0268
     36    H       25.6820    0.6770    3.0010 H       2  LIG2        0.0233
     37    H       24.7650   -0.1290    4.2640 H       2  LIG2        0.0233
     38    H       26.3960    0.4340    4.5970 H       2  LIG2        0.0233
     39    H       24.5130    6.8300    2.3590 H       2  LIG2        0.0257
     40    H       24.6250    7.8930    3.7550 H       2  LIG2        0.0257
     41    H       23.3550    6.6910    3.6740 H       2  LIG2        0.0257
     42    H       25.4520    6.8170    5.8230 H       2  LIG2        0.2102
@<TRIPOS>BOND
     1    39    16    1
     2    32    13    1
     3    20     6    1
     4    17     2    1
     5    34    14    1
     6    27    11    1
     7    18     4    1
     8    36    15    1
     9    25    10    1
    10    16    41    1
    11    16    40    1
    12    16     9    1
    13     2     4    1
    14     2     3    1
    15     2     5    1
    16    13    33    1
    17    13    31    1
    18    13     3    1
    19     6    10    1
    20     6     9    1
    21     6     5    1
    22     4     3    1
    23     4     7    1
    24    14    10    1
    25    14    35    1
    26    14     8    1
    27    10    24    1
    28    11     9    1
    29    11    26    1
    30    11     7    1
    31    15    37    1
    32    15     8    1
    33    15    38    1
    34     9     1    1
    35     3    12    1
    36     5     8    1
    37     5    19    1
    38     7    22    1
    39     7    21    1
    40     8    23    1
    41     1    42    1
    42    12    29    1
    43    12    28    1
    44    12    30    1
@<TRIPOS>MOLECULE
11996452_4_run_12.pdb
 42 44 0 0 0
SMALL
GASTEIGER

@<TRIPOS>ATOM
      1    O       28.5940    0.1530    1.8290 O.3     2  LIG2       -0.3886
      2    C       27.3130    2.4350    4.9480 C.3     2  LIG2       -0.0289
      3    C       28.0750    3.7470    4.9810 C.3     2  LIG2       -0.0284
      4    C       28.8280    2.4500    5.1840 C.3     2  LIG2       -0.0319
      5    C       26.7900    1.7790    3.6440 C.3     2  LIG2       -0.0294
      6    C       27.0000    0.2390    3.6770 C.3     2  LIG2       -0.0090
      7    C       29.7650    1.8150    4.1310 C.3     2  LIG2       -0.0468
      8    C       25.2940    2.0310    3.2950 C.3     2  LIG2       -0.0404
      9    C       28.3980   -0.2610    3.1730 C.3     2  LIG2        0.0664
     10    C       25.7790   -0.3250    2.9260 C.3     2  LIG2       -0.0471
     11    C       29.6030    0.2820    4.0000 C.3     2  LIG2       -0.0237
     12    C       28.2660    4.5980    3.7040 C.3     2  LIG2       -0.0593
     13    C       27.8580    4.6310    6.2230 C.3     2  LIG2       -0.0593
     14    C       24.6420    0.6420    3.2380 C.3     2  LIG2       -0.0498
     15    C       24.5300    3.0090    4.2110 C.3     2  LIG2       -0.0621
     16    C       28.4760   -1.8060    3.1570 C.3     2  LIG2       -0.0358
     17    H       26.7010    2.1710    5.8120 H       2  LIG2        0.0312
     18    H       29.2030    2.2750    6.1940 H       2  LIG2        0.0309
     19    H       27.3490    2.1670    2.7950 H       2  LIG2        0.0310
     20    H       26.8970   -0.0990    4.7100 H       2  LIG2        0.0331
     21    H       29.6720    2.2760    3.1500 H       2  LIG2        0.0269
     22    H       30.7900    2.0180    4.4430 H       2  LIG2        0.0269
     23    H       25.2490    2.4480    2.2870 H       2  LIG2        0.0301
     24    H       25.9610   -0.3610    1.8510 H       2  LIG2        0.0269
     25    H       25.5320   -1.3370    3.2500 H       2  LIG2        0.0269
     26    H       30.5280   -0.1210    3.5820 H       2  LIG2        0.0293
     27    H       29.5520   -0.1340    5.0080 H       2  LIG2        0.0293
     28    H       29.1260    5.2600    3.8090 H       2  LIG2        0.0235
     29    H       27.3900    5.2230    3.5260 H       2  LIG2        0.0235
     30    H       28.4260    4.0220    2.7970 H       2  LIG2        0.0235
     31    H       28.7150    5.2820    6.3970 H       2  LIG2        0.0235
     32    H       27.7120    4.0390    7.1280 H       2  LIG2        0.0235
     33    H       26.9770    5.2610    6.1040 H       2  LIG2        0.0235
     34    H       24.1850    0.3870    4.1960 H       2  LIG2        0.0268
     35    H       23.8580    0.5890    2.4810 H       2  LIG2        0.0268
     36    H       24.4690    2.6440    5.2370 H       2  LIG2        0.0233
     37    H       23.5100    3.1570    3.8580 H       2  LIG2        0.0233
     38    H       25.0120    3.9880    4.2300 H       2  LIG2        0.0233
     39    H       28.3180   -2.2190    4.1550 H       2  LIG2        0.0257
     40    H       29.4480   -2.1600    2.8090 H       2  LIG2        0.0257
     41    H       27.7270   -2.2480    2.4990 H       2  LIG2        0.0257
     42    H       27.9830   -0.3330    1.2700 H       2  LIG2        0.2102
@<TRIPOS>BOND
     1    42     1    1
     2     1     9    1
     3    24    10    1
     4    23     8    1
     5    35    14    1
     6    41    16    1
     7    19     5    1
     8    30    12    1
     9    40    16    1
    10    10    14    1
    11    10    25    1
    12    10     6    1
    13    21     7    1
    14    16     9    1
    15    16    39    1
    16     9     6    1
    17     9    11    1
    18    14     8    1
    19    14    34    1
    20     8     5    1
    21     8    15    1
    22    29    12    1
    23    26    11    1
    24     5     6    1
    25     5     2    1
    26     6    20    1
    27    12    28    1
    28    12     3    1
    29    37    15    1
    30    11     7    1
    31    11    27    1
    32     7    22    1
    33     7     4    1
    34    15    38    1
    35    15    36    1
    36     2     3    1
    37     2     4    1
    38     2    17    1
    39     3     4    1
    40     3    13    1
    41     4    18    1
    42    33    13    1
    43    13    31    1
    44    13    32    1
@<TRIPOS>MOLECULE
11996452_4_run_5.pdb
 42 44 0 0 0
SMALL
GASTEIGER

@<TRIPOS>ATOM
      1    O       26.1210    2.0140    1.7930 O.3     2  LIG2       -0.3886
      2    C       27.7040    1.6470    5.5260 C.3     2  LIG2       -0.0289
      3    C       28.9250    0.7470    5.4880 C.3     2  LIG2       -0.0284
      4    C       27.5730    0.1730    5.1240 C.3     2  LIG2       -0.0319
      5    C       27.3970    2.7210    4.4510 C.3     2  LIG2       -0.0294
      6    C       25.8800    2.7440    4.1100 C.3     2  LIG2       -0.0090
      7    C       27.1390   -0.1820    3.6830 C.3     2  LIG2       -0.0468
      8    C       27.8120    4.1820    4.7940 C.3     2  LIG2       -0.0404
      9    C       25.4240    1.7370    2.9980 C.3     2  LIG2        0.0664
     10    C       25.5770    4.2280    3.8310 C.3     2  LIG2       -0.0471
     11    C       25.6900    0.2400    3.3480 C.3     2  LIG2       -0.0237
     12    C       30.0320    0.9380    4.4260 C.3     2  LIG2       -0.0593
     13    C       29.5140    0.3370    6.8510 C.3     2  LIG2       -0.0593
     14    C       26.5150    5.0020    4.7510 C.3     2  LIG2       -0.0498
     15    C       28.5990    4.3820    6.1050 C.3     2  LIG2       -0.0621
     16    C       23.9220    1.8990    2.6660 C.3     2  LIG2       -0.0358
     17    H       27.2880    1.9120    6.4990 H       2  LIG2        0.0312
     18    H       27.1500   -0.5310    5.8420 H       2  LIG2        0.0309
     19    H       27.9330    2.4810    3.5350 H       2  LIG2        0.0310
     20    H       25.3210    2.4910    5.0140 H       2  LIG2        0.0331
     21    H       27.8180    0.2110    2.9290 H       2  LIG2        0.0269
     22    H       27.2030   -1.2670    3.5820 H       2  LIG2        0.0269
     23    H       28.4500    4.5490    3.9870 H       2  LIG2        0.0301
     24    H       25.7770    4.4810    2.7890 H       2  LIG2        0.0269
     25    H       24.5340    4.4780    4.0340 H       2  LIG2        0.0269
     26    H       25.3380   -0.3830    2.5230 H       2  LIG2        0.0293
     27    H       25.0590   -0.0390    4.1930 H       2  LIG2        0.0293
     28    H       30.5990    0.0170    4.2920 H       2  LIG2        0.0235
     29    H       30.7330    1.7130    4.7380 H       2  LIG2        0.0235
     30    H       29.6710    1.2260    3.4420 H       2  LIG2        0.0235
     31    H       30.0540   -0.6070    6.7780 H       2  LIG2        0.0235
     32    H       28.7410    0.2100    7.6100 H       2  LIG2        0.0235
     33    H       30.2070    1.0930    7.2190 H       2  LIG2        0.0235
     34    H       26.0760    5.0880    5.7480 H       2  LIG2        0.0268
     35    H       26.6840    6.0150    4.3830 H       2  LIG2        0.0268
     36    H       28.0140    4.0970    6.9800 H       2  LIG2        0.0233
     37    H       28.8860    5.4260    6.2310 H       2  LIG2        0.0233
     38    H       29.5170    3.7910    6.1070 H       2  LIG2        0.0233
     39    H       23.3030    1.7200    3.5460 H       2  LIG2        0.0257
     40    H       23.5990    1.1990    1.8940 H       2  LIG2        0.0257
     41    H       23.6880    2.8990    2.3010 H       2  LIG2        0.0257
     42    H       25.8370    1.3840    1.1260 H       2  LIG2        0.2102
@<TRIPOS>BOND
     1    42     1    1
     2     1     9    1
     3    40    16    1
     4    41    16    1
     5    26    11    1
     6    16     9    1
     7    16    39    1
     8    24    10    1
     9    21     7    1
    10     9    11    1
    11     9     6    1
    12    11     7    1
    13    11    27    1
    14    30    12    1
    15    19     5    1
    16    22     7    1
    17     7     4    1
    18    10    25    1
    19    10     6    1
    20    10    14    1
    21    23     8    1
    22     6     5    1
    23     6    20    1
    24    28    12    1
    25    35    14    1
    26    12    29    1
    27    12     3    1
    28     5     8    1
    29     5     2    1
    30    14     8    1
    31    14    34    1
    32     8    15    1
    33     4     3    1
    34     4     2    1
    35     4    18    1
    36     3     2    1
    37     3    13    1
    38     2    17    1
    39    15    38    1
    40    15    37    1
    41    15    36    1
    42    31    13    1
    43    13    33    1
    44    13    32    1
@<TRIPOS>MOLECULE
11996452_4_run_12.pdb
 42 44 0 0 0
SMALL
GASTEIGER

@<TRIPOS>ATOM
      1    O       29.3490    3.7490    4.3400 O.3     2  LIG2       -0.3886
      2    C       25.9880    1.4700    4.0430 C.3     2  LIG2       -0.0289
      3    C       25.3230    1.6960    2.6980 C.3     2  LIG2       -0.0284
      4    C       25.4330    2.8510    3.6710 C.3     2  LIG2       -0.0319
      5    C       27.5210    1.3330    4.2290 C.3     2  LIG2       -0.0294
      6    C       27.9930    2.0860    5.5040 C.3     2  LIG2       -0.0090
      7    C       26.4090    4.0380    3.5020 C.3     2  LIG2       -0.0468
      8    C       28.0800   -0.1180    4.3200 C.3     2  LIG2       -0.0404
      9    C       28.3190    3.6060    5.3070 C.3     2  LIG2        0.0664
     10    C       29.1460    1.2210    6.0500 C.3     2  LIG2       -0.0471
     11    C       27.1090    4.4580    4.8150 C.3     2  LIG2       -0.0237
     12    C       26.1370    1.6690    1.3840 C.3     2  LIG2       -0.0593
     13    C       23.9280    1.0690    2.5130 C.3     2  LIG2       -0.0593
     14    C       28.7690   -0.2120    5.6880 C.3     2  LIG2       -0.0498
     15    C       27.0680   -1.2590    4.0850 C.3     2  LIG2       -0.0621
     16    C       28.8660    4.2440    6.6060 C.3     2  LIG2       -0.0358
     17    H       25.4330    0.9260    4.8090 H       2  LIG2        0.0312
     18    H       24.4950    3.1780    4.1220 H       2  LIG2        0.0309
     19    H       28.0310    1.7800    3.3780 H       2  LIG2        0.0310
     20    H       27.1980    2.0270    6.2520 H       2  LIG2        0.0331
     21    H       27.1550    3.8650    2.7300 H       2  LIG2        0.0269
     22    H       25.8260    4.8890    3.1460 H       2  LIG2        0.0269
     23    H       28.8560   -0.2280    3.5610 H       2  LIG2        0.0301
     24    H       30.0940    1.4920    5.5840 H       2  LIG2        0.0269
     25    H       29.2660    1.3340    7.1280 H       2  LIG2        0.0269
     26    H       27.4270    5.4970    4.7120 H       2  LIG2        0.0293
     27    H       26.3530    4.4780    5.6030 H       2  LIG2        0.0293
     28    H       25.6160    2.2160    0.5980 H       2  LIG2        0.0235
     29    H       26.2690    0.6430    1.0370 H       2  LIG2        0.0235
     30    H       27.1300    2.1020    1.4580 H       2  LIG2        0.0235
     31    H       23.3490    1.6130    1.7660 H       2  LIG2        0.0235
     32    H       23.3500    1.0740    3.4380 H       2  LIG2        0.0235
     33    H       24.0070    0.0320    2.1870 H       2  LIG2        0.0235
     34    H       28.0910   -0.6230    6.4390 H       2  LIG2        0.0268
     35    H       29.6490   -0.8570    5.6590 H       2  LIG2        0.0268
     36    H       26.2800   -1.2680    4.8390 H       2  LIG2        0.0233
     37    H       27.5620   -2.2300    4.1200 H       2  LIG2        0.0233
     38    H       26.5950   -1.1700    3.1050 H       2  LIG2        0.0233
     39    H       28.1430    4.1650    7.4180 H       2  LIG2        0.0257
     40    H       29.0940    5.3020    6.4740 H       2  LIG2        0.0257
     41    H       29.7870    3.7640    6.9420 H       2  LIG2        0.0257
     42    H       29.4570    4.6830    4.1470 H       2  LIG2        0.2102
@<TRIPOS>BOND
     1    28    12    1
     2    29    12    1
     3    12    30    1
     4    12     3    1
     5    31    13    1
     6    33    13    1
     7    13     3    1
     8    13    32    1
     9     3     4    1
    10     3     2    1
    11    21     7    1
    12    38    15    1
    13    22     7    1
    14    19     5    1
    15     7     4    1
    16     7    11    1
    17    23     8    1
    18     4     2    1
    19     4    18    1
    20     2     5    1
    21     2    17    1
    22    15    37    1
    23    15     8    1
    24    15    36    1
    25    42     1    1
    26     5     8    1
    27     5     6    1
    28     8    14    1
    29     1     9    1
    30    26    11    1
    31    11     9    1
    32    11    27    1
    33     9     6    1
    34     9    16    1
    35     6    10    1
    36     6    20    1
    37    24    10    1
    38    35    14    1
    39    14    10    1
    40    14    34    1
    41    10    25    1
    42    40    16    1
    43    16    41    1
    44    16    39    1
