@<TRIPOS>MOLECULE
11996452_6_run_17.pdb
 42 44 0 0 0
SMALL
GASTEIGER

@<TRIPOS>ATOM
      1    O       26.0960    6.0930    5.0650 O.3     2  LIG2       -0.3886
      2    C       27.6500    2.3200    3.1400 C.3     2  LIG2       -0.0289
      3    C       28.3440    1.0600    3.6790 C.3     2  LIG2       -0.0284
      4    C       28.4250    2.3570    4.4610 C.3     2  LIG2       -0.0319
      5    C       26.1330    2.7110    3.1300 C.3     2  LIG2       -0.0294
      6    C       25.7850    4.1670    3.5850 C.3     2  LIG2       -0.0090
      7    C       27.6270    2.6730    5.7430 C.3     2  LIG2       -0.0468
      8    C       25.0370    1.7650    3.7070 C.3     2  LIG2       -0.0404
      9    C       26.7380    4.9170    4.5950 C.3     2  LIG2        0.0664
     10    C       24.2930    4.0760    3.9810 C.3     2  LIG2       -0.0471
     11    C       27.1750    4.1430    5.8810 C.3     2  LIG2       -0.0237
     12    C       27.6420   -0.1690    4.3040 C.3     2  LIG2       -0.0593
     13    C       29.6150    0.6380    2.9150 C.3     2  LIG2       -0.0593
     14    C       24.0750    2.6610    4.5000 C.3     2  LIG2       -0.0498
     15    C       24.3340    0.8970    2.6450 C.3     2  LIG2       -0.0621
     16    C       27.9740    5.5220    3.8720 C.3     2  LIG2       -0.0358
     17    H       28.1420    2.7990    2.2920 H       2  LIG2        0.0312
     18    H       29.4070    2.8320    4.4850 H       2  LIG2        0.0309
     19    H       25.9160    2.7300    2.0600 H       2  LIG2        0.0310
     20    H       25.7990    4.7840    2.6840 H       2  LIG2        0.0331
     21    H       26.7460    2.0490    5.8370 H       2  LIG2        0.0269
     22    H       28.2390    2.4100    6.6070 H       2  LIG2        0.0269
     23    H       25.4390    1.0780    4.4350 H       2  LIG2        0.0301
     24    H       23.9840    4.8050    4.7300 H       2  LIG2        0.0269
     25    H       23.6660    4.2490    3.1050 H       2  LIG2        0.0269
     26    H       26.3510    4.1420    6.5970 H       2  LIG2        0.0293
     27    H       27.9800    4.6930    6.3700 H       2  LIG2        0.0293
     28    H       28.3780   -0.8970    4.6460 H       2  LIG2        0.0235
     29    H       27.0160   -0.6730    3.5690 H       2  LIG2        0.0235
     30    H       27.0410    0.0380    5.1840 H       2  LIG2        0.0235
     31    H       30.3050    0.0980    3.5650 H       2  LIG2        0.0235
     32    H       30.1600    1.4930    2.5120 H       2  LIG2        0.0235
     33    H       29.3670   -0.0120    2.0760 H       2  LIG2        0.0235
     34    H       23.0310    2.3600    4.3920 H       2  LIG2        0.0268
     35    H       24.3070    2.6150    5.5650 H       2  LIG2        0.0268
     36    H       23.8120    1.5100    1.9090 H       2  LIG2        0.0233
     37    H       23.5990    0.2330    3.1020 H       2  LIG2        0.0233
     38    H       25.0510    0.2730    2.1110 H       2  LIG2        0.0233
     39    H       28.6220    4.7760    3.4230 H       2  LIG2        0.0257
     40    H       28.5990    6.1060    4.5510 H       2  LIG2        0.0257
     41    H       27.6770    6.1930    3.0640 H       2  LIG2        0.0257
     42    H       26.6510    6.4930    5.7390 H       2  LIG2        0.2102
@<TRIPOS>BOND
     1    36    15    1
     2    19     5    1
     3    33    13    1
     4    38    15    1
     5    17     2    1
     6    32    13    1
     7    15    37    1
     8    15     8    1
     9    20     6    1
    10    13    31    1
    11    13     3    1
    12    41    16    1
    13    25    10    1
    14     5     2    1
    15     5     6    1
    16     5     8    1
    17     2     3    1
    18     2     4    1
    19    39    16    1
    20    29    12    1
    21     6    10    1
    22     6     9    1
    23     3    12    1
    24     3     4    1
    25     8    23    1
    26     8    14    1
    27    16    40    1
    28    16     9    1
    29    10    14    1
    30    10    24    1
    31    12    28    1
    32    12    30    1
    33    34    14    1
    34     4    18    1
    35     4     7    1
    36    14    35    1
    37     9     1    1
    38     9    11    1
    39     1    42    1
    40     7    21    1
    41     7    11    1
    42     7    22    1
    43    11    27    1
    44    11    26    1
@<TRIPOS>MOLECULE
11996452_6_run_10.pdb
 42 44 0 0 0
SMALL
GASTEIGER

@<TRIPOS>ATOM
      1    O       30.5510   -0.8560    4.3440 O.3     2  LIG2       -0.3886
      2    C       26.9930    1.4700    2.8320 C.3     2  LIG2       -0.0289
      3    C       25.4980    1.4710    3.1810 C.3     2  LIG2       -0.0284
      4    C       26.3350    0.2390    3.4620 C.3     2  LIG2       -0.0319
      5    C       28.2010    2.1510    3.5610 C.3     2  LIG2       -0.0294
      6    C       29.4740    1.2680    3.7760 C.3     2  LIG2       -0.0090
      7    C       26.8340   -0.1980    4.8550 C.3     2  LIG2       -0.0468
      8    C       28.0050    3.0120    4.8450 C.3     2  LIG2       -0.0404
      9    C       29.3260   -0.2980    3.8910 C.3     2  LIG2        0.0664
     10    C       30.2170    1.9790    4.9310 C.3     2  LIG2       -0.0471
     11    C       28.2360   -0.8470    4.8680 C.3     2  LIG2       -0.0237
     12    C       24.8380    2.2330    4.3550 C.3     2  LIG2       -0.0593
     13    C       24.5450    1.3930    1.9710 C.3     2  LIG2       -0.0593
     14    C       29.1440    2.6210    5.7980 C.3     2  LIG2       -0.0498
     15    C       27.9220    4.5280    4.5780 C.3     2  LIG2       -0.0621
     16    C       29.1960   -0.9650    2.4940 C.3     2  LIG2       -0.0358
     17    H       27.2260    1.3870    1.7690 H       2  LIG2        0.0312
     18    H       26.1240   -0.6280    2.8340 H       2  LIG2        0.0309
     19    H       28.5290    2.8770    2.8140 H       2  LIG2        0.0310
     20    H       30.1080    1.4200    2.8990 H       2  LIG2        0.0331
     21    H       26.8500    0.6270    5.5580 H       2  LIG2        0.0269
     22    H       26.1160   -0.9020    5.2780 H       2  LIG2        0.0269
     23    H       27.1010    2.7520    5.3710 H       2  LIG2        0.0301
     24    H       30.8460    1.3210    5.5300 H       2  LIG2        0.0269
     25    H       30.8760    2.7500    4.5280 H       2  LIG2        0.0269
     26    H       28.5990   -0.7660    5.8950 H       2  LIG2        0.0293
     27    H       28.1070   -1.9170    4.6930 H       2  LIG2        0.0293
     28    H       23.7700    2.0170    4.3990 H       2  LIG2        0.0235
     29    H       24.9380    3.3090    4.2240 H       2  LIG2        0.0235
     30    H       25.2040    1.9700    5.3430 H       2  LIG2        0.0235
     31    H       23.5990    0.9220    2.2440 H       2  LIG2        0.0235
     32    H       24.9640    0.8110    1.1500 H       2  LIG2        0.0235
     33    H       24.3250    2.3880    1.5840 H       2  LIG2        0.0235
     34    H       29.5440    3.4720    6.3520 H       2  LIG2        0.0268
     35    H       28.7860    1.9030    6.5390 H       2  LIG2        0.0268
     36    H       28.8410    4.9060    4.1270 H       2  LIG2        0.0233
     37    H       27.7550    5.0830    5.5030 H       2  LIG2        0.0233
     38    H       27.0980    4.7630    3.9030 H       2  LIG2        0.0233
     39    H       28.3020   -0.6680    1.9530 H       2  LIG2        0.0257
     40    H       29.1670   -2.0550    2.5610 H       2  LIG2        0.0257
     41    H       30.0390   -0.7130    1.8480 H       2  LIG2        0.0257
     42    H       31.2730   -0.3910    3.9160 H       2  LIG2        0.2102
@<TRIPOS>BOND
     1    32    13    1
     2    33    13    1
     3    17     2    1
     4    41    16    1
     5    39    16    1
     6    13    31    1
     7    13     3    1
     8    16    40    1
     9    16     9    1
    10    19     5    1
    11     2     3    1
    12     2     4    1
    13     2     5    1
    14    18     4    1
    15    20     6    1
    16     3     4    1
    17     3    12    1
    18     4     7    1
    19     5     6    1
    20     5     8    1
    21     6     9    1
    22     6    10    1
    23     9     1    1
    24     9    11    1
    25    38    15    1
    26    42     1    1
    27    36    15    1
    28    29    12    1
    29    12    28    1
    30    12    30    1
    31    25    10    1
    32    15     8    1
    33    15    37    1
    34    27    11    1
    35     8    23    1
    36     8    14    1
    37     7    11    1
    38     7    22    1
    39     7    21    1
    40    11    26    1
    41    10    24    1
    42    10    14    1
    43    14    34    1
    44    14    35    1
@<TRIPOS>MOLECULE
11996452_6_run_20.pdb
 42 44 0 0 0
SMALL
GASTEIGER

@<TRIPOS>ATOM
      1    O       24.1200    3.8870    3.7160 O.3     2  LIG2       -0.3886
      2    C       27.0970    0.5930    4.5150 C.3     2  LIG2       -0.0289
      3    C       27.8670   -0.3850    3.6160 C.3     2  LIG2       -0.0284
      4    C       26.5690    0.2260    3.1250 C.3     2  LIG2       -0.0319
      5    C       27.3870    2.0950    4.8540 C.3     2  LIG2       -0.0294
      6    C       26.1690    3.0740    4.7820 C.3     2  LIG2       -0.0090
      7    C       26.4590    1.3610    2.0860 C.3     2  LIG2       -0.0468
      8    C       28.6250    2.8430    4.2740 C.3     2  LIG2       -0.0404
      9    C       24.9650    2.7500    3.8150 C.3     2  LIG2        0.0664
     10    C       26.8290    4.4630    4.6230 C.3     2  LIG2       -0.0471
     11    C       25.3120    2.3640    2.3400 C.3     2  LIG2       -0.0237
     12    C       29.1870   -0.0860    2.8660 C.3     2  LIG2       -0.0593
     13    C       27.8070   -1.8620    4.0570 C.3     2  LIG2       -0.0593
     14    C       28.1250    4.2340    3.8570 C.3     2  LIG2       -0.0498
     15    C       29.8360    2.8860    5.2270 C.3     2  LIG2       -0.0621
     16    C       23.9930    1.7110    4.4390 C.3     2  LIG2       -0.0358
     17    H       26.5680    0.1390    5.3550 H       2  LIG2        0.0312
     18    H       25.7260   -0.4610    3.0440 H       2  LIG2        0.0309
     19    H       27.5980    2.0440    5.9240 H       2  LIG2        0.0310
     20    H       25.7230    3.0870    5.7790 H       2  LIG2        0.0331
     21    H       27.3780    1.9300    2.0060 H       2  LIG2        0.0269
     22    H       26.3270    0.9170    1.0980 H       2  LIG2        0.0269
     23    H       28.9790    2.3910    3.3620 H       2  LIG2        0.0301
     24    H       26.2100    5.1960    4.1070 H       2  LIG2        0.0269
     25    H       27.0500    4.8830    5.6050 H       2  LIG2        0.0269
     26    H       25.5690    3.2670    1.7830 H       2  LIG2        0.0293
     27    H       24.4160    1.9730    1.8550 H       2  LIG2        0.0293
     28    H       29.4870   -0.9430    2.2620 H       2  LIG2        0.0235
     29    H       29.9970    0.1050    3.5680 H       2  LIG2        0.0235
     30    H       29.1430    0.7360    2.1590 H       2  LIG2        0.0235
     31    H       27.9180   -2.5330    3.2040 H       2  LIG2        0.0235
     32    H       26.8620   -2.1130    4.5380 H       2  LIG2        0.0235
     33    H       28.6020   -2.0890    4.7670 H       2  LIG2        0.0235
     34    H       28.8490    5.0240    4.0670 H       2  LIG2        0.0268
     35    H       27.9330    4.2590    2.7830 H       2  LIG2        0.0268
     36    H       29.5990    3.4150    6.1520 H       2  LIG2        0.0233
     37    H       30.6840    3.3930    4.7650 H       2  LIG2        0.0233
     38    H       30.1620    1.8800    5.4930 H       2  LIG2        0.0233
     39    H       24.4460    0.7390    4.6080 H       2  LIG2        0.0257
     40    H       23.1190    1.5380    3.8080 H       2  LIG2        0.0257
     41    H       23.6180    2.0440    5.4090 H       2  LIG2        0.0257
     42    H       23.9150    4.1910    4.6040 H       2  LIG2        0.2102
@<TRIPOS>BOND
     1    22     7    1
     2    26    11    1
     3    27    11    1
     4    21     7    1
     5     7    11    1
     6     7     4    1
     7    30    12    1
     8    28    12    1
     9    11     9    1
    10    35    14    1
    11    12    29    1
    12    12     3    1
    13    18     4    1
    14     4     3    1
    15     4     2    1
    16    31    13    1
    17    23     8    1
    18     3    13    1
    19     3     2    1
    20     1     9    1
    21     1    42    1
    22    40    16    1
    23     9    16    1
    24     9     6    1
    25    14    34    1
    26    14     8    1
    27    14    10    1
    28    13    32    1
    29    13    33    1
    30    24    10    1
    31     8     5    1
    32     8    15    1
    33    16    39    1
    34    16    41    1
    35     2     5    1
    36     2    17    1
    37    10     6    1
    38    10    25    1
    39    37    15    1
    40     6     5    1
    41     6    20    1
    42     5    19    1
    43    15    38    1
    44    15    36    1
@<TRIPOS>MOLECULE
11996452_6_run_12.pdb
 42 44 0 0 0
SMALL
GASTEIGER

@<TRIPOS>ATOM
      1    O       29.9200   -0.3450    4.6470 O.3     2  LIG2       -0.3886
      2    C       26.4220    2.4800    5.0180 C.3     2  LIG2       -0.0289
      3    C       26.2300    3.9770    4.7350 C.3     2  LIG2       -0.0284
      4    C       27.6180    3.4380    5.0220 C.3     2  LIG2       -0.0319
      5    C       26.4210    1.2580    4.0380 C.3     2  LIG2       -0.0294
      6    C       27.5750    0.2180    4.2190 C.3     2  LIG2       -0.0090
      7    C       28.7170    3.2040    3.9650 C.3     2  LIG2       -0.0468
      8    C       26.1840    1.4330    2.5080 C.3     2  LIG2       -0.0404
      9    C       28.9570    0.6830    4.8230 C.3     2  LIG2        0.0664
     10    C       27.6270   -0.5070    2.8540 C.3     2  LIG2       -0.0471
     11    C       29.6090    1.9690    4.2190 C.3     2  LIG2       -0.0237
     12    C       25.9250    4.6110    3.3560 C.3     2  LIG2       -0.0593
     13    C       25.5550    4.7750    5.8680 C.3     2  LIG2       -0.0593
     14    C       27.1990    0.5160    1.8110 C.3     2  LIG2       -0.0498
     15    C       24.7280    1.1850    2.0660 C.3     2  LIG2       -0.0621
     16    C       28.9010    0.7740    6.3740 C.3     2  LIG2       -0.0358
     17    H       26.0860    2.1430    6.0010 H       2  LIG2        0.0312
     18    H       28.0520    3.7380    5.9770 H       2  LIG2        0.0309
     19    H       25.5400    0.7070    4.3720 H       2  LIG2        0.0310
     20    H       27.2080   -0.5330    4.9220 H       2  LIG2        0.0331
     21    H       28.3070    3.1110    2.9660 H       2  LIG2        0.0269
     22    H       29.3490    4.0920    3.9180 H       2  LIG2        0.0269
     23    H       26.4310    2.4270    2.1720 H       2  LIG2        0.0301
     24    H       28.6050   -0.9170    2.6030 H       2  LIG2        0.0269
     25    H       26.9320   -1.3470    2.8550 H       2  LIG2        0.0269
     26    H       30.0670    1.7220    3.2590 H       2  LIG2        0.0293
     27    H       30.4360    2.2830    4.8580 H       2  LIG2        0.0293
     28    H       25.8870    5.6980    3.4340 H       2  LIG2        0.0235
     29    H       24.9530    4.2860    2.9870 H       2  LIG2        0.0235
     30    H       26.6660    4.4240    2.5860 H       2  LIG2        0.0235
     31    H       25.8670    5.8210    5.8550 H       2  LIG2        0.0235
     32    H       25.8010    4.3830    6.8560 H       2  LIG2        0.0235
     33    H       24.4700    4.7480    5.7710 H       2  LIG2        0.0235
     34    H       26.7890    0.0260    0.9270 H       2  LIG2        0.0268
     35    H       28.0640    1.0940    1.4800 H       2  LIG2        0.0268
     36    H       24.4130    0.1630    2.2810 H       2  LIG2        0.0233
     37    H       24.6070    1.3490    0.9950 H       2  LIG2        0.0233
     38    H       24.0420    1.8600    2.5790 H       2  LIG2        0.0233
     39    H       28.2030    1.5210    6.7410 H       2  LIG2        0.0257
     40    H       29.8730    1.0230    6.8040 H       2  LIG2        0.0257
     41    H       28.5940   -0.1730    6.8210 H       2  LIG2        0.0257
     42    H       30.7940    0.0520    4.6640 H       2  LIG2        0.2102
@<TRIPOS>BOND
     1    34    14    1
     2    37    15    1
     3    35    14    1
     4    14     8    1
     5    14    10    1
     6    15    36    1
     7    15     8    1
     8    15    38    1
     9    23     8    1
    10     8     5    1
    11    30    12    1
    12    24    10    1
    13    10    25    1
    14    10     6    1
    15    21     7    1
    16    29    12    1
    17    26    11    1
    18    12    28    1
    19    12     3    1
    20    22     7    1
    21     7    11    1
    22     7     4    1
    23     5     6    1
    24     5    19    1
    25     5     2    1
    26    11     9    1
    27    11    27    1
    28     6     9    1
    29     6    20    1
    30     1    42    1
    31     1     9    1
    32     3     2    1
    33     3     4    1
    34     3    13    1
    35     9    16    1
    36     2     4    1
    37     2    17    1
    38     4    18    1
    39    33    13    1
    40    31    13    1
    41    13    32    1
    42    16    39    1
    43    16    40    1
    44    16    41    1
@<TRIPOS>MOLECULE
11996452_6_run_3.pdb
 42 44 0 0 0
SMALL
GASTEIGER

@<TRIPOS>ATOM
      1    O       26.5700   -1.7510    3.2210 O.3     2  LIG2       -0.3886
      2    C       27.3500    2.2300    5.1960 C.3     2  LIG2       -0.0289
      3    C       28.3150    3.3890    4.9070 C.3     2  LIG2       -0.0284
      4    C       28.6450    1.9940    4.4130 C.3     2  LIG2       -0.0319
      5    C       25.9770    1.8700    4.5330 C.3     2  LIG2       -0.0294
      6    C       25.7630    0.3710    4.1420 C.3     2  LIG2       -0.0090
      7    C       28.5140    1.5130    2.9530 C.3     2  LIG2       -0.0468
      8    C       25.3580    2.7430    3.4010 C.3     2  LIG2       -0.0404
      9    C       27.0120   -0.5310    3.7980 C.3     2  LIG2        0.0664
     10    C       24.6410    0.4300    3.0800 C.3     2  LIG2       -0.0471
     11    C       28.0600    0.0460    2.7910 C.3     2  LIG2       -0.0237
     12    C       28.0890    4.5290    3.8850 C.3     2  LIG2       -0.0593
     13    C       29.1140    3.8930    6.1260 C.3     2  LIG2       -0.0593
     14    C       24.8060    1.7610    2.3580 C.3     2  LIG2       -0.0498
     15    C       24.3150    3.7650    3.8950 C.3     2  LIG2       -0.0621
     16    C       27.7150   -1.0480    5.0840 C.3     2  LIG2       -0.0358
     17    H       27.3490    1.8680    6.2260 H       2  LIG2        0.0312
     18    H       29.4830    1.5040    4.9120 H       2  LIG2        0.0309
     19    H       25.2860    2.0060    5.3680 H       2  LIG2        0.0310
     20    H       25.3060   -0.1130    5.0070 H       2  LIG2        0.0331
     21    H       27.8320    2.1320    2.3820 H       2  LIG2        0.0269
     22    H       29.4770    1.6410    2.4570 H       2  LIG2        0.0269
     23    H       26.1070    3.3130    2.8760 H       2  LIG2        0.0301
     24    H       24.6580   -0.3930    2.3650 H       2  LIG2        0.0269
     25    H       23.6670    0.3930    3.5690 H       2  LIG2        0.0269
     26    H       27.6680   -0.0400    1.7760 H       2  LIG2        0.0293
     27    H       28.9530   -0.5810    2.8080 H       2  LIG2        0.0293
     28    H       28.9560    5.1890    3.8490 H       2  LIG2        0.0235
     29    H       27.2360    5.1430    4.1730 H       2  LIG2        0.0235
     30    H       27.9530    4.2100    2.8570 H       2  LIG2        0.0235
     31    H       30.0690    4.3240    5.8220 H       2  LIG2        0.0235
     32    H       29.3370    3.0950    6.8350 H       2  LIG2        0.0235
     33    H       28.5570    4.6600    6.6660 H       2  LIG2        0.0235
     34    H       23.8610    2.0910    1.9240 H       2  LIG2        0.0268
     35    H       25.5110    1.6510    1.5320 H       2  LIG2        0.0268
     36    H       23.4610    3.2710    4.3630 H       2  LIG2        0.0233
     37    H       23.9340    4.3700    3.0710 H       2  LIG2        0.0233
     38    H       24.7480    4.4460    4.6280 H       2  LIG2        0.0233
     39    H       28.1380   -0.2570    5.6960 H       2  LIG2        0.0257
     40    H       28.5350   -1.7330    4.8550 H       2  LIG2        0.0257
     41    H       27.0220   -1.5930    5.7280 H       2  LIG2        0.0257
     42    H       26.3490   -1.5890    2.3010 H       2  LIG2        0.2102
@<TRIPOS>BOND
     1    35    14    1
     2    26    11    1
     3    34    14    1
     4    42     1    1
     5    14    10    1
     6    14     8    1
     7    24    10    1
     8    21     7    1
     9    22     7    1
    10    11    27    1
    11    11     7    1
    12    11     9    1
    13    30    12    1
    14    23     8    1
    15     7     4    1
    16    37    15    1
    17    10    25    1
    18    10     6    1
    19     1     9    1
    20     8    15    1
    21     8     5    1
    22     9     6    1
    23     9    16    1
    24    28    12    1
    25    12    29    1
    26    12     3    1
    27    15    36    1
    28    15    38    1
    29     6     5    1
    30     6    20    1
    31     4     3    1
    32     4    18    1
    33     4     2    1
    34     5     2    1
    35     5    19    1
    36    40    16    1
    37     3     2    1
    38     3    13    1
    39    16    39    1
    40    16    41    1
    41     2    17    1
    42    31    13    1
    43    13    33    1
    44    13    32    1
@<TRIPOS>MOLECULE
11996452_6_run_22.pdb
 42 44 0 0 0
SMALL
GASTEIGER

@<TRIPOS>ATOM
      1    O       24.4230   -0.1070    2.8550 O.3     2  LIG2       -0.3886
      2    C       27.4790    3.1900    3.2300 C.3     2  LIG2       -0.0289
      3    C       27.6630    4.3630    4.2040 C.3     2  LIG2       -0.0284
      4    C       26.2870    3.7600    4.0040 C.3     2  LIG2       -0.0319
      5    C       27.8450    1.6760    3.3920 C.3     2  LIG2       -0.0294
      6    C       26.7510    0.6440    2.9620 C.3     2  LIG2       -0.0090
      7    C       25.5740    2.8220    5.0000 C.3     2  LIG2       -0.0468
      8    C       28.5250    1.1290    4.6830 C.3     2  LIG2       -0.0404
      9    C       25.2280    1.0500    3.0290 C.3     2  LIG2        0.0664
     10    C       27.1550   -0.6460    3.7130 C.3     2  LIG2       -0.0471
     11    C       24.7180    1.7140    4.3490 C.3     2  LIG2       -0.0237
     12    C       28.3360    4.2930    5.5960 C.3     2  LIG2       -0.0593
     13    C       27.9180    5.7300    3.5390 C.3     2  LIG2       -0.0593
     14    C       27.8210   -0.1970    5.0060 C.3     2  LIG2       -0.0498
     15    C       30.0570    1.0020    4.5810 C.3     2  LIG2       -0.0621
     16    C       24.8060    1.8930    1.7930 C.3     2  LIG2       -0.0358
     17    H       27.5210    3.4510    2.1710 H       2  LIG2        0.0312
     18    H       25.5680    4.3910    3.4790 H       2  LIG2        0.0309
     19    H       28.6140    1.5510    2.6260 H       2  LIG2        0.0310
     20    H       26.9300    0.4230    1.9080 H       2  LIG2        0.0331
     21    H       26.2710    2.3420    5.6760 H       2  LIG2        0.0269
     22    H       24.9370    3.4240    5.6500 H       2  LIG2        0.0269
     23    H       28.3340    1.7590    5.5370 H       2  LIG2        0.0301
     24    H       26.3240   -1.3180    3.9280 H       2  LIG2        0.0269
     25    H       27.8640   -1.2170    3.1110 H       2  LIG2        0.0269
     26    H       24.5860    0.9440    5.1110 H       2  LIG2        0.0293
     27    H       23.7200    2.1220    4.1790 H       2  LIG2        0.0293
     28    H       28.2870    5.2620    6.0940 H       2  LIG2        0.0235
     29    H       29.3900    4.0370    5.5050 H       2  LIG2        0.0235
     30    H       27.8740    3.6080    6.3000 H       2  LIG2        0.0235
     31    H       27.5670    6.5480    4.1700 H       2  LIG2        0.0235
     32    H       27.4070    5.8270    2.5800 H       2  LIG2        0.0235
     33    H       28.9820    5.8820    3.3550 H       2  LIG2        0.0235
     34    H       28.5060   -0.9600    5.3800 H       2  LIG2        0.0268
     35    H       27.0660   -0.0450    5.7800 H       2  LIG2        0.0268
     36    H       30.3490    0.3020    3.7960 H       2  LIG2        0.0233
     37    H       30.4870    0.6440    5.5180 H       2  LIG2        0.0233
     38    H       30.5170    1.9650    4.3570 H       2  LIG2        0.0233
     39    H       25.3170    2.8480    1.7240 H       2  LIG2        0.0257
     40    H       23.7370    2.1140    1.7940 H       2  LIG2        0.0257
     41    H       25.0160    1.3680    0.8590 H       2  LIG2        0.0257
     42    H       23.5030    0.1430    2.9740 H       2  LIG2        0.2102
@<TRIPOS>BOND
     1    41    16    1
     2    39    16    1
     3    16    40    1
     4    16     9    1
     5    20     6    1
     6    17     2    1
     7    32    13    1
     8    19     5    1
     9     1    42    1
    10     1     9    1
    11     6     9    1
    12     6     5    1
    13     6    10    1
    14     9    11    1
    15    25    10    1
    16     2     5    1
    17     2     4    1
    18     2     3    1
    19    33    13    1
    20     5     8    1
    21    18     4    1
    22    13    31    1
    23    13     3    1
    24    10    24    1
    25    10    14    1
    26    36    15    1
    27     4     3    1
    28     4     7    1
    29    27    11    1
    30     3    12    1
    31    11     7    1
    32    11    26    1
    33    38    15    1
    34    15     8    1
    35    15    37    1
    36     8    14    1
    37     8    23    1
    38     7    22    1
    39     7    21    1
    40    14    34    1
    41    14    35    1
    42    29    12    1
    43    12    28    1
    44    12    30    1
@<TRIPOS>MOLECULE
11996452_6_run_9.pdb
 42 44 0 0 0
SMALL
GASTEIGER

@<TRIPOS>ATOM
      1    O       30.1060    3.5050    4.8550 O.3     2  LIG2       -0.3886
      2    C       25.8120    2.1290    4.7090 C.3     2  LIG2       -0.0289
      3    C       24.6800    2.2850    3.6830 C.3     2  LIG2       -0.0284
      4    C       25.8180    3.2860    3.7050 C.3     2  LIG2       -0.0319
      5    C       27.0190    1.1310    4.7360 C.3     2  LIG2       -0.0294
      6    C       28.4210    1.7410    5.0670 C.3     2  LIG2       -0.0090
      7    C       26.9770    3.3370    2.6890 C.3     2  LIG2       -0.0468
      8    C       27.2240    0.0590    3.6230 C.3     2  LIG2       -0.0404
      9    C       28.7150    3.2510    4.7190 C.3     2  LIG2        0.0664
     10    C       29.4120    0.6970    4.5030 C.3     2  LIG2       -0.0471
     11    C       28.3440    3.7440    3.2820 C.3     2  LIG2       -0.0237
     12    C       24.4590    1.4040    2.4300 C.3     2  LIG2       -0.0593
     13    C       23.3340    2.7630    4.2640 C.3     2  LIG2       -0.0593
     14    C       28.7250    0.0600    3.3020 C.3     2  LIG2       -0.0498
     15    C       26.6740   -1.3350    3.9840 C.3     2  LIG2       -0.0621
     16    C       28.1320    4.2100    5.7950 C.3     2  LIG2       -0.0358
     17    H       25.5530    2.3960    5.7350 H       2  LIG2        0.0312
     18    H       25.5580    4.2870    4.0520 H       2  LIG2        0.0309
     19    H       26.7950    0.5360    5.6250 H       2  LIG2        0.0310
     20    H       28.5370    1.6810    6.1510 H       2  LIG2        0.0331
     21    H       27.1120    2.3900    2.1780 H       2  LIG2        0.0269
     22    H       26.7140    4.0380    1.8960 H       2  LIG2        0.0269
     23    H       26.7430    0.3390    2.7000 H       2  LIG2        0.0301
     24    H       30.3780    1.1080    4.2120 H       2  LIG2        0.0269
     25    H       29.6170   -0.0640    5.2570 H       2  LIG2        0.0269
     26    H       29.0990    3.3930    2.5760 H       2  LIG2        0.0293
     27    H       28.4070    4.8330    3.2520 H       2  LIG2        0.0293
     28    H       23.6090    1.7690    1.8510 H       2  LIG2        0.0235
     29    H       24.2320    0.3770    2.7130 H       2  LIG2        0.0235
     30    H       25.2800    1.3930    1.7200 H       2  LIG2        0.0235
     31    H       22.7520    3.3060    3.5180 H       2  LIG2        0.0235
     32    H       23.4630    3.4320    5.1150 H       2  LIG2        0.0235
     33    H       22.7350    1.9180    4.6050 H       2  LIG2        0.0235
     34    H       29.1180   -0.9400    3.1100 H       2  LIG2        0.0268
     35    H       28.9190    0.6520    2.4060 H       2  LIG2        0.0268
     36    H       27.1740   -1.7470    4.8620 H       2  LIG2        0.0233
     37    H       26.8150   -2.0390    3.1640 H       2  LIG2        0.0233
     38    H       25.6060   -1.2920    4.1990 H       2  LIG2        0.0233
     39    H       27.0490    4.1750    5.8650 H       2  LIG2        0.0257
     40    H       28.3950    5.2510    5.6000 H       2  LIG2        0.0257
     41    H       28.5090    3.9720    6.7910 H       2  LIG2        0.0257
     42    H       30.3930    4.0330    4.1050 H       2  LIG2        0.2102
@<TRIPOS>BOND
     1    30    12    1
     2    28    12    1
     3    22     7    1
     4    21     7    1
     5    35    14    1
     6    12    29    1
     7    12     3    1
     8    26    11    1
     9     7    11    1
    10     7     4    1
    11    23     8    1
    12    34    14    1
    13    37    15    1
    14    27    11    1
    15    11     9    1
    16    14     8    1
    17    14    10    1
    18    31    13    1
    19     8    15    1
    20     8     5    1
    21     3     4    1
    22     3    13    1
    23     3     2    1
    24     4    18    1
    25     4     2    1
    26    15    38    1
    27    15    36    1
    28    42     1    1
    29    24    10    1
    30    13    33    1
    31    13    32    1
    32    10     6    1
    33    10    25    1
    34     2     5    1
    35     2    17    1
    36     9     1    1
    37     9     6    1
    38     9    16    1
    39     5     6    1
    40     5    19    1
    41     6    20    1
    42    40    16    1
    43    16    39    1
    44    16    41    1
@<TRIPOS>MOLECULE
11996452_6_run_11.pdb
 42 44 0 0 0
SMALL
GASTEIGER

@<TRIPOS>ATOM
      1    O       27.0650   -0.2230    2.0040 O.3     2  LIG2       -0.3886
      2    C       25.9490    3.8510    3.5890 C.3     2  LIG2       -0.0289
      3    C       24.8900    4.3520    4.5810 C.3     2  LIG2       -0.0284
      4    C       24.6790    3.0370    3.8550 C.3     2  LIG2       -0.0319
      5    C       27.3480    3.1960    3.8500 C.3     2  LIG2       -0.0294
      6    C       27.6880    1.9190    3.0130 C.3     2  LIG2       -0.0090
      7    C       24.8510    1.6380    4.4820 C.3     2  LIG2       -0.0468
      8    C       27.8920    2.9700    5.2930 C.3     2  LIG2       -0.0404
      9    C       26.5200    0.9930    2.4960 C.3     2  LIG2        0.0664
     10    C       28.8020    1.2320    3.8370 C.3     2  LIG2       -0.0471
     11    C       25.4280    0.5670    3.5310 C.3     2  LIG2       -0.0237
     12    C       25.0190    4.3630    6.1230 C.3     2  LIG2       -0.0593
     13    C       24.0510    5.5490    4.0910 C.3     2  LIG2       -0.0593
     14    C       28.5250    1.5710    5.2950 C.3     2  LIG2       -0.0498
     15    C       28.8450    4.0760    5.7860 C.3     2  LIG2       -0.0621
     16    C       25.8630    1.5650    1.2090 C.3     2  LIG2       -0.0358
     17    H       25.9800    4.3760    2.6330 H       2  LIG2        0.0312
     18    H       23.8860    3.0350    3.1060 H       2  LIG2        0.0309
     19    H       28.0250    3.9470    3.4370 H       2  LIG2        0.0310
     20    H       28.1850    2.2670    2.1050 H       2  LIG2        0.0331
     21    H       25.4790    1.6630    5.3650 H       2  LIG2        0.0269
     22    H       23.8810    1.2990    4.8480 H       2  LIG2        0.0269
     23    H       27.0970    2.9150    6.0200 H       2  LIG2        0.0301
     24    H       28.8550    0.1520    3.7030 H       2  LIG2        0.0269
     25    H       29.7760    1.6270    3.5440 H       2  LIG2        0.0269
     26    H       25.8260   -0.2240    4.1690 H       2  LIG2        0.0293
     27    H       24.5920    0.1120    2.9980 H       2  LIG2        0.0293
     28    H       24.0990    4.7260    6.5820 H       2  LIG2        0.0235
     29    H       25.8170    5.0340    6.4400 H       2  LIG2        0.0235
     30    H       25.1820    3.3930    6.5820 H       2  LIG2        0.0235
     31    H       23.0630    5.5550    4.5540 H       2  LIG2        0.0235
     32    H       23.8960    5.5330    3.0120 H       2  LIG2        0.0235
     33    H       24.5400    6.4930    4.3340 H       2  LIG2        0.0235
     34    H       29.4390    1.5220    5.8890 H       2  LIG2        0.0268
     35    H       27.8320    0.8430    5.7220 H       2  LIG2        0.0268
     36    H       29.7360    4.1440    5.1610 H       2  LIG2        0.0233
     37    H       29.1730    3.8870    6.8090 H       2  LIG2        0.0233
     38    H       28.3540    5.0500    5.7750 H       2  LIG2        0.0233
     39    H       25.3750    2.5230    1.3610 H       2  LIG2        0.0257
     40    H       25.1050    0.8930    0.8030 H       2  LIG2        0.0257
     41    H       26.5990    1.7220    0.4180 H       2  LIG2        0.0257
     42    H       26.3400   -0.7980    1.7460 H       2  LIG2        0.2102
@<TRIPOS>BOND
     1    41    16    1
     2    40    16    1
     3    16    39    1
     4    16     9    1
     5    42     1    1
     6     1     9    1
     7    20     6    1
     8     9     6    1
     9     9    11    1
    10    17     2    1
    11    27    11    1
    12    32    13    1
    13     6    10    1
    14     6     5    1
    15    18     4    1
    16    19     5    1
    17    11    26    1
    18    11     7    1
    19    25    10    1
    20     2     5    1
    21     2     4    1
    22     2     3    1
    23    24    10    1
    24    10    14    1
    25     5     8    1
    26     4     7    1
    27     4     3    1
    28    13    33    1
    29    13    31    1
    30    13     3    1
    31     7    22    1
    32     7    21    1
    33     3    12    1
    34    36    15    1
    35     8    14    1
    36     8    15    1
    37     8    23    1
    38    14    35    1
    39    14    34    1
    40    38    15    1
    41    15    37    1
    42    12    29    1
    43    12    30    1
    44    12    28    1
@<TRIPOS>MOLECULE
11996452_6_run_2.pdb
 42 44 0 0 0
SMALL
GASTEIGER

@<TRIPOS>ATOM
      1    O       26.6970    6.5260    5.2180 O.3     2  LIG2       -0.3886
      2    C       25.7960    2.1900    4.3560 C.3     2  LIG2       -0.0289
      3    C       25.7460    1.3500    3.0720 C.3     2  LIG2       -0.0284
      4    C       25.5500    2.8510    2.9970 C.3     2  LIG2       -0.0319
      5    C       27.0230    2.6430    5.2180 C.3     2  LIG2       -0.0294
      6    C       27.0480    4.1430    5.6610 C.3     2  LIG2       -0.0090
      7    C       26.6040    3.8610    2.4980 C.3     2  LIG2       -0.0468
      8    C       28.4810    2.2390    4.8470 C.3     2  LIG2       -0.0404
      9    C       26.3210    5.2290    4.7770 C.3     2  LIG2        0.0664
     10    C       28.5380    4.4010    5.9850 C.3     2  LIG2       -0.0471
     11    C       26.6080    5.2150    3.2410 C.3     2  LIG2       -0.0237
     12    C       26.9560    0.6980    2.3610 C.3     2  LIG2       -0.0593
     13    C       24.4810    0.4830    2.9080 C.3     2  LIG2       -0.0593
     14    C       29.3380    3.4960    5.0580 C.3     2  LIG2       -0.0498
     15    C       29.0040    1.0050    5.6080 C.3     2  LIG2       -0.0621
     16    C       24.7900    5.2560    5.0480 C.3     2  LIG2       -0.0358
     17    H       24.9220    2.1060    5.0050 H       2  LIG2        0.0312
     18    H       24.5410    3.1830    2.7450 H       2  LIG2        0.0309
     19    H       26.8420    2.1140    6.1570 H       2  LIG2        0.0310
     20    H       26.5390    4.1900    6.6270 H       2  LIG2        0.0331
     21    H       27.6090    3.4580    2.5480 H       2  LIG2        0.0269
     22    H       26.4370    4.0420    1.4350 H       2  LIG2        0.0269
     23    H       28.5820    2.0080    3.7990 H       2  LIG2        0.0301
     24    H       28.8490    5.4380    5.8630 H       2  LIG2        0.0269
     25    H       28.7410    4.1380    7.0240 H       2  LIG2        0.0269
     26    H       27.5870    5.6610    3.0540 H       2  LIG2        0.0293
     27    H       25.8940    5.8700    2.7390 H       2  LIG2        0.0293
     28    H       26.6400    0.2010    1.4440 H       2  LIG2        0.0235
     29    H       27.4130   -0.0630    2.9930 H       2  LIG2        0.0235
     30    H       27.7300    1.3880    2.0380 H       2  LIG2        0.0235
     31    H       24.2540    0.3100    1.8550 H       2  LIG2        0.0235
     32    H       23.5990    0.9470    3.3510 H       2  LIG2        0.0235
     33    H       24.6100   -0.4880    3.3860 H       2  LIG2        0.0235
     34    H       30.3200    3.2730    5.4800 H       2  LIG2        0.0268
     35    H       29.5110    3.9990    4.1050 H       2  LIG2        0.0268
     36    H       29.0300    1.1800    6.6850 H       2  LIG2        0.0233
     37    H       30.0160    0.7460    5.2920 H       2  LIG2        0.0233
     38    H       28.3720    0.1350    5.4270 H       2  LIG2        0.0233
     39    H       24.2850    4.3340    4.7780 H       2  LIG2        0.0257
     40    H       24.2910    6.0540    4.4960 H       2  LIG2        0.0257
     41    H       24.5730    5.4230    6.1050 H       2  LIG2        0.0257
     42    H       26.6630    6.5420    6.1770 H       2  LIG2        0.2102
@<TRIPOS>BOND
     1    22     7    1
     2    28    12    1
     3    31    13    1
     4    30    12    1
     5    12    29    1
     6    12     3    1
     7     7    21    1
     8     7     4    1
     9     7    11    1
    10    27    11    1
    11    18     4    1
    12    13     3    1
    13    13    32    1
    14    13    33    1
    15     4     3    1
    16     4     2    1
    17    26    11    1
    18     3     2    1
    19    11     9    1
    20    23     8    1
    21    35    14    1
    22     2    17    1
    23     2     5    1
    24    40    16    1
    25     9    16    1
    26     9     1    1
    27     9     6    1
    28    39    16    1
    29     8    14    1
    30     8     5    1
    31     8    15    1
    32    16    41    1
    33    14    34    1
    34    14    10    1
    35     1    42    1
    36     5     6    1
    37     5    19    1
    38    37    15    1
    39    38    15    1
    40    15    36    1
    41     6    10    1
    42     6    20    1
    43    24    10    1
    44    10    25    1
@<TRIPOS>MOLECULE
11996452_6_run_21.pdb
 42 44 0 0 0
SMALL
GASTEIGER

@<TRIPOS>ATOM
      1    O       28.3800   -0.1500    3.9770 O.3     2  LIG2       -0.3886
      2    C       26.9660    4.0390    4.8750 C.3     2  LIG2       -0.0289
      3    C       27.0720    5.3790    4.1320 C.3     2  LIG2       -0.0284
      4    C       28.0810    4.2820    3.8530 C.3     2  LIG2       -0.0319
      5    C       25.9800    2.8420    4.6620 C.3     2  LIG2       -0.0294
      6    C       26.6130    1.4120    4.6380 C.3     2  LIG2       -0.0090
      7    C       28.0990    3.3890    2.5960 C.3     2  LIG2       -0.0468
      8    C       24.8650    2.8790    3.5740 C.3     2  LIG2       -0.0404
      9    C       28.1100    1.2300    4.1740 C.3     2  LIG2        0.0664
     10    C       25.5540    0.5590    3.9020 C.3     2  LIG2       -0.0471
     11    C       28.5400    1.9300    2.8430 C.3     2  LIG2       -0.0237
     12    C       26.1390    5.8670    2.9980 C.3     2  LIG2       -0.0593
     13    C       27.5630    6.5640    4.9880 C.3     2  LIG2       -0.0593
     14    C       24.8640    1.4920    2.9160 C.3     2  LIG2       -0.0498
     15    C       23.4830    3.3080    4.1050 C.3     2  LIG2       -0.0621
     16    C       29.1080    1.5670    5.3170 C.3     2  LIG2       -0.0358
     17    H       27.2740    4.0600    5.9220 H       2  LIG2        0.0312
     18    H       29.0940    4.4730    4.2120 H       2  LIG2        0.0309
     19    H       25.4210    2.8460    5.6010 H       2  LIG2        0.0310
     20    H       26.5990    1.0490    5.6680 H       2  LIG2        0.0331
     21    H       27.1330    3.3590    2.1050 H       2  LIG2        0.0269
     22    H       28.7650    3.8380    1.8590 H       2  LIG2        0.0269
     23    H       25.1030    3.5640    2.7760 H       2  LIG2        0.0301
     24    H       25.9610   -0.3080    3.3810 H       2  LIG2        0.0269
     25    H       24.8260    0.1740    4.6180 H       2  LIG2        0.0269
     26    H       28.1660    1.3510    1.9960 H       2  LIG2        0.0293
     27    H       29.6280    1.8930    2.7580 H       2  LIG2        0.0293
     28    H       26.4720    6.8330    2.6170 H       2  LIG2        0.0235
     29    H       25.1220    6.0050    3.3640 H       2  LIG2        0.0235
     30    H       26.1050    5.2310    2.1190 H       2  LIG2        0.0235
     31    H       28.0700    7.3100    4.3750 H       2  LIG2        0.0235
     32    H       28.2680    6.2540    5.7600 H       2  LIG2        0.0235
     33    H       26.7280    7.0530    5.4900 H       2  LIG2        0.0235
     34    H       23.8600    1.1370    2.6780 H       2  LIG2        0.0268
     35    H       25.4200    1.5190    1.9780 H       2  LIG2        0.0268
     36    H       23.1110    2.6130    4.8600 H       2  LIG2        0.0233
     37    H       22.7460    3.3470    3.3020 H       2  LIG2        0.0233
     38    H       23.5260    4.2990    4.5580 H       2  LIG2        0.0233
     39    H       29.0680    2.6040    5.6370 H       2  LIG2        0.0257
     40    H       30.1430    1.3730    5.0280 H       2  LIG2        0.0257
     41    H       28.9140    0.9680    6.2090 H       2  LIG2        0.0257
     42    H       29.2780   -0.2390    3.6470 H       2  LIG2        0.2102
@<TRIPOS>BOND
     1    22     7    1
     2    35    14    1
     3    26    11    1
     4    21     7    1
     5    30    12    1
     6     7    11    1
     7     7     4    1
     8    28    12    1
     9    34    14    1
    10    27    11    1
    11    23     8    1
    12    11     9    1
    13    14     8    1
    14    14    10    1
    15    12    29    1
    16    12     3    1
    17    37    15    1
    18    24    10    1
    19     8    15    1
    20     8     5    1
    21    42     1    1
    22     4     3    1
    23     4    18    1
    24     4     2    1
    25    10    25    1
    26    10     6    1
    27     1     9    1
    28    15    38    1
    29    15    36    1
    30     3     2    1
    31     3    13    1
    32     9     6    1
    33     9    16    1
    34    31    13    1
    35     6     5    1
    36     6    20    1
    37     5     2    1
    38     5    19    1
    39     2    17    1
    40    13    33    1
    41    13    32    1
    42    40    16    1
    43    16    39    1
    44    16    41    1
