@<TRIPOS>MOLECULE
11996452_3_run_3.pdb
 42 44 0 0 0
SMALL
GASTEIGER

@<TRIPOS>ATOM
      1    O       27.5620    5.1990    5.6050 O.3     2  LIG2       -0.3886
      2    C       27.2260    0.7720    4.5270 C.3     2  LIG2       -0.0289
      3    C       28.1790   -0.1100    3.7380 C.3     2  LIG2       -0.0284
      4    C       28.7420    0.8890    4.7260 C.3     2  LIG2       -0.0319
      5    C       26.4480    1.9610    3.9060 C.3     2  LIG2       -0.0294
      6    C       26.4550    3.2280    4.7980 C.3     2  LIG2       -0.0090
      7    C       29.4730    2.1860    4.3170 C.3     2  LIG2       -0.0468
      8    C       24.9580    1.6170    3.6400 C.3     2  LIG2       -0.0404
      9    C       27.7300    4.1340    4.6840 C.3     2  LIG2        0.0664
     10    C       25.1200    3.9220    4.4630 C.3     2  LIG2       -0.0471
     11    C       29.0410    3.4240    5.1310 C.3     2  LIG2       -0.0237
     12    C       28.2360   -1.5940    4.1450 C.3     2  LIG2       -0.0593
     13    C       28.3730    0.0690    2.2140 C.3     2  LIG2       -0.0593
     14    C       24.1300    2.7960    4.1810 C.3     2  LIG2       -0.0498
     15    C       24.6540    1.2680    2.1720 C.3     2  LIG2       -0.0621
     16    C       27.9340    4.8140    3.3040 C.3     2  LIG2       -0.0358
     17    H       26.6770    0.3200    5.3540 H       2  LIG2        0.0312
     18    H       29.1850    0.4620    5.6270 H       2  LIG2        0.0309
     19    H       26.8860    2.2470    2.9540 H       2  LIG2        0.0310
     20    H       26.3780    2.9000    5.8390 H       2  LIG2        0.0331
     21    H       30.5370    2.0250    4.4960 H       2  LIG2        0.0269
     22    H       29.3970    2.3930    3.2520 H       2  LIG2        0.0269
     23    H       24.6780    0.7470    4.2370 H       2  LIG2        0.0301
     24    H       24.7750    4.5570    5.2790 H       2  LIG2        0.0269
     25    H       25.2050    4.5530    3.5780 H       2  LIG2        0.0269
     26    H       28.9570    3.1220    6.1770 H       2  LIG2        0.0293
     27    H       29.8630    4.1430    5.1040 H       2  LIG2        0.0293
     28    H       29.1970   -2.0350    3.8820 H       2  LIG2        0.0235
     29    H       27.4550   -2.1670    3.6430 H       2  LIG2        0.0235
     30    H       28.0990   -1.7320    5.2180 H       2  LIG2        0.0235
     31    H       29.3400   -0.3290    1.9030 H       2  LIG2        0.0235
     32    H       28.3350    1.1000    1.8720 H       2  LIG2        0.0235
     33    H       27.6030   -0.4730    1.6640 H       2  LIG2        0.0235
     34    H       23.3530    3.1220    3.4860 H       2  LIG2        0.0268
     35    H       23.6250    2.5060    5.1030 H       2  LIG2        0.0268
     36    H       24.8840    2.1030    1.5090 H       2  LIG2        0.0233
     37    H       23.6010    1.0170    2.0370 H       2  LIG2        0.0233
     38    H       25.2410    0.4100    1.8440 H       2  LIG2        0.0233
     39    H       28.0180    4.0930    2.4920 H       2  LIG2        0.0257
     40    H       28.8450    5.4140    3.2880 H       2  LIG2        0.0257
     41    H       27.1200    5.4910    3.0480 H       2  LIG2        0.0257
     42    H       27.4330    4.8260    6.4800 H       2  LIG2        0.2102
@<TRIPOS>BOND
     1    36    15    1
     2    33    13    1
     3    38    15    1
     4    32    13    1
     5    31    13    1
     6    37    15    1
     7    15     8    1
     8    13     3    1
     9    39    16    1
    10    19     5    1
    11    41    16    1
    12    22     7    1
    13    40    16    1
    14    16     9    1
    15    34    14    1
    16    25    10    1
    17     8     5    1
    18     8    14    1
    19     8    23    1
    20    29    12    1
    21     3    12    1
    22     3     2    1
    23     3     4    1
    24    28    12    1
    25     5     2    1
    26     5     6    1
    27    12    30    1
    28    14    10    1
    29    14    35    1
    30     7    21    1
    31     7     4    1
    32     7    11    1
    33    10     6    1
    34    10    24    1
    35     2     4    1
    36     2    17    1
    37     9     6    1
    38     9    11    1
    39     9     1    1
    40     4    18    1
    41     6    20    1
    42    27    11    1
    43    11    26    1
    44     1    42    1
@<TRIPOS>MOLECULE
11996452_3_run_7.pdb
 42 44 0 0 0
SMALL
GASTEIGER

@<TRIPOS>ATOM
      1    O       30.3290    1.6100    4.4920 O.3     2  LIG2       -0.3886
      2    C       26.5480    3.9940    3.5490 C.3     2  LIG2       -0.0289
      3    C       25.7060    4.8780    4.4540 C.3     2  LIG2       -0.0284
      4    C       27.2150    4.9330    4.5620 C.3     2  LIG2       -0.0319
      5    C       26.6800    2.4610    3.7330 C.3     2  LIG2       -0.0294
      6    C       28.1350    1.9510    3.5790 C.3     2  LIG2       -0.0090
      7    C       28.0150    4.3440    5.7430 C.3     2  LIG2       -0.0468
      8    C       25.8250    1.6670    2.7090 C.3     2  LIG2       -0.0404
      9    C       29.0410    2.0800    4.8540 C.3     2  LIG2        0.0664
     10    C       27.9690    0.5200    3.0310 C.3     2  LIG2       -0.0471
     11    C       29.2670    3.5510    5.3100 C.3     2  LIG2       -0.0237
     12    C       25.0150    6.0820    3.7870 C.3     2  LIG2       -0.0593
     13    C       24.8400    4.2820    5.5880 C.3     2  LIG2       -0.0593
     14    C       26.7310    0.5620    2.1390 C.3     2  LIG2       -0.0498
     15    C       24.4970    1.1430    3.2850 C.3     2  LIG2       -0.0621
     16    C       28.6090    1.2060    6.0600 C.3     2  LIG2       -0.0358
     17    H       26.6500    4.2840    2.5020 H       2  LIG2        0.0312
     18    H       27.6800    5.8500    4.1960 H       2  LIG2        0.0309
     19    H       26.3500    2.1670    4.7250 H       2  LIG2        0.0310
     20    H       28.6070    2.5320    2.7820 H       2  LIG2        0.0331
     21    H       28.3490    5.1830    6.3550 H       2  LIG2        0.0269
     22    H       27.4010    3.7410    6.4070 H       2  LIG2        0.0269
     23    H       25.5710    2.3180    1.8710 H       2  LIG2        0.0301
     24    H       28.8460    0.1920    2.4740 H       2  LIG2        0.0269
     25    H       27.8080   -0.2020    3.8320 H       2  LIG2        0.0269
     26    H       29.7570    4.1120    4.5120 H       2  LIG2        0.0293
     27    H       29.9720    3.5610    6.1450 H       2  LIG2        0.0293
     28    H       24.8290    6.8760    4.5110 H       2  LIG2        0.0235
     29    H       24.0570    5.7920    3.3530 H       2  LIG2        0.0235
     30    H       25.6170    6.5100    2.9850 H       2  LIG2        0.0235
     31    H       24.6510    5.0310    6.3580 H       2  LIG2        0.0235
     32    H       25.2790    3.4230    6.0890 H       2  LIG2        0.0235
     33    H       23.8730    3.9590    5.2020 H       2  LIG2        0.0235
     34    H       26.2400   -0.4120    2.1040 H       2  LIG2        0.0268
     35    H       27.0190    0.8060    1.1160 H       2  LIG2        0.0268
     36    H       24.6670    0.4590    4.1180 H       2  LIG2        0.0233
     37    H       23.9230    0.6080    2.5280 H       2  LIG2        0.0233
     38    H       23.8770    1.9630    3.6490 H       2  LIG2        0.0233
     39    H       27.5990    1.4320    6.3990 H       2  LIG2        0.0257
     40    H       29.2690    1.3560    6.9160 H       2  LIG2        0.0257
     41    H       28.6410    0.1400    5.8350 H       2  LIG2        0.0257
     42    H       30.6210    2.0930    3.7150 H       2  LIG2        0.2102
@<TRIPOS>BOND
     1    35    14    1
     2    23     8    1
     3    34    14    1
     4    14     8    1
     5    14    10    1
     6    24    10    1
     7    17     2    1
     8    37    15    1
     9     8    15    1
    10     8     5    1
    11    20     6    1
    12    30    12    1
    13    10     6    1
    14    10    25    1
    15    15    38    1
    16    15    36    1
    17    29    12    1
    18     2     5    1
    19     2     3    1
    20     2     4    1
    21     6     5    1
    22     6     9    1
    23    42     1    1
    24     5    19    1
    25    12     3    1
    26    12    28    1
    27    18     4    1
    28     3     4    1
    29     3    13    1
    30     1     9    1
    31    26    11    1
    32     4     7    1
    33     9    11    1
    34     9    16    1
    35    33    13    1
    36    11     7    1
    37    11    27    1
    38    13    32    1
    39    13    31    1
    40     7    21    1
    41     7    22    1
    42    41    16    1
    43    16    39    1
    44    16    40    1
@<TRIPOS>MOLECULE
11996452_3_run_17.pdb
 42 44 0 0 0
SMALL
GASTEIGER

@<TRIPOS>ATOM
      1    O       26.4010   -1.2650    3.3870 O.3     2  LIG2       -0.3886
      2    C       26.0290    3.0120    4.9500 C.3     2  LIG2       -0.0289
      3    C       25.6220    4.2810    4.2200 C.3     2  LIG2       -0.0284
      4    C       24.8790    2.9920    3.9350 C.3     2  LIG2       -0.0319
      5    C       27.3290    2.2260    4.6400 C.3     2  LIG2       -0.0294
      6    C       27.1150    0.6920    4.5800 C.3     2  LIG2       -0.0090
      7    C       25.0230    2.1870    2.6260 C.3     2  LIG2       -0.0468
      8    C       28.4370    2.4740    5.6980 C.3     2  LIG2       -0.0404
      9    C       26.5720    0.1330    3.2190 C.3     2  LIG2        0.0664
     10    C       28.4680    0.1130    5.0380 C.3     2  LIG2       -0.0471
     11    C       25.1570    0.6650    2.8470 C.3     2  LIG2       -0.0237
     12    C       24.8770    5.3410    5.0510 C.3     2  LIG2       -0.0593
     13    C       26.5390    4.9310    3.1580 C.3     2  LIG2       -0.0593
     14    C       29.0080    1.0960    6.0730 C.3     2  LIG2       -0.0498
     15    C       29.5060    3.4860    5.2500 C.3     2  LIG2       -0.0621
     16    C       27.5350    0.2850    2.0130 C.3     2  LIG2       -0.0358
     17    H       25.7360    2.9070    5.9960 H       2  LIG2        0.0312
     18    H       23.8550    2.9480    4.3080 H       2  LIG2        0.0309
     19    H       27.7320    2.5220    3.6760 H       2  LIG2        0.0310
     20    H       26.3900    0.4280    5.3550 H       2  LIG2        0.0331
     21    H       24.1190    2.3600    2.0420 H       2  LIG2        0.0269
     22    H       25.8350    2.5470    1.9990 H       2  LIG2        0.0269
     23    H       27.9830    2.8760    6.6060 H       2  LIG2        0.0301
     24    H       28.3620   -0.8870    5.4600 H       2  LIG2        0.0269
     25    H       29.1750    0.0390    4.2120 H       2  LIG2        0.0269
     26    H       24.4410    0.3760    3.6190 H       2  LIG2        0.0293
     27    H       24.8170    0.1660    1.9370 H       2  LIG2        0.0293
     28    H       24.2500    5.9660    4.4150 H       2  LIG2        0.0235
     29    H       25.5780    5.9920    5.5750 H       2  LIG2        0.0235
     30    H       24.2280    4.8920    5.8040 H       2  LIG2        0.0235
     31    H       25.9530    5.5460    2.4730 H       2  LIG2        0.0235
     32    H       27.0950    4.2250    2.5470 H       2  LIG2        0.0235
     33    H       27.2740    5.5820    3.6330 H       2  LIG2        0.0235
     34    H       30.0990    1.0810    6.0960 H       2  LIG2        0.0268
     35    H       28.6690    0.8100    7.0700 H       2  LIG2        0.0268
     36    H       30.0280    3.1440    4.3550 H       2  LIG2        0.0233
     37    H       30.2530    3.6430    6.0290 H       2  LIG2        0.0233
     38    H       29.0590    4.4550    5.0240 H       2  LIG2        0.0233
     39    H       27.7950    1.3240    1.8150 H       2  LIG2        0.0257
     40    H       27.0910   -0.1070    1.0970 H       2  LIG2        0.0257
     41    H       28.4690   -0.2570    2.1530 H       2  LIG2        0.0257
     42    H       26.1320   -1.6420    2.5460 H       2  LIG2        0.2102
@<TRIPOS>BOND
     1    40    16    1
     2    39    16    1
     3    27    11    1
     4    22     7    1
     5    16    41    1
     6    16     9    1
     7    21     7    1
     8    31    13    1
     9    42     1    1
    10    32    13    1
    11     7    11    1
    12     7     4    1
    13    11     9    1
    14    11    26    1
    15    13    33    1
    16    13     3    1
    17     9     1    1
    18     9     6    1
    19    19     5    1
    20     4     3    1
    21     4    18    1
    22     4     2    1
    23    25    10    1
    24     3     2    1
    25     3    12    1
    26    36    15    1
    27    28    12    1
    28     6     5    1
    29     6    10    1
    30     6    20    1
    31     5     2    1
    32     5     8    1
    33     2    17    1
    34    38    15    1
    35    10    24    1
    36    10    14    1
    37    12    29    1
    38    12    30    1
    39    15     8    1
    40    15    37    1
    41     8    14    1
    42     8    23    1
    43    14    34    1
    44    14    35    1
@<TRIPOS>MOLECULE
11996452_3_run_23.pdb
 42 44 0 0 0
SMALL
GASTEIGER

@<TRIPOS>ATOM
      1    O       23.6210    5.0670    3.9580 O.3     2  LIG2       -0.3886
      2    C       26.9550    2.0950    2.9950 C.3     2  LIG2       -0.0289
      3    C       27.0950    0.6340    3.3860 C.3     2  LIG2       -0.0284
      4    C       25.7390    1.1600    2.9650 C.3     2  LIG2       -0.0319
      5    C       26.9910    3.2620    4.0160 C.3     2  LIG2       -0.0294
      6    C       25.8970    4.3300    3.7610 C.3     2  LIG2       -0.0090
      7    C       24.5660    1.3930    3.9410 C.3     2  LIG2       -0.0468
      8    C       28.3490    4.0120    4.0090 C.3     2  LIG2       -0.0404
      9    C       24.4760    4.0010    4.3380 C.3     2  LIG2        0.0664
     10    C       26.5320    5.6370    4.2750 C.3     2  LIG2       -0.0471
     11    C       23.8290    2.7310    3.7140 C.3     2  LIG2       -0.0237
     12    C       27.8270   -0.2770    2.3830 C.3     2  LIG2       -0.0593
     13    C       27.3760    0.2110    4.8470 C.3     2  LIG2       -0.0593
     14    C       28.0240    5.5150    3.9770 C.3     2  LIG2       -0.0498
     15    C       29.2880    3.6050    5.1590 C.3     2  LIG2       -0.0621
     16    C       24.3920    3.9400    5.8860 C.3     2  LIG2       -0.0358
     17    H       27.3350    2.4030    2.0200 H       2  LIG2        0.0312
     18    H       25.3770    0.8060    1.9990 H       2  LIG2        0.0309
     19    H       26.8330    2.8900    5.0240 H       2  LIG2        0.0310
     20    H       25.7920    4.4440    2.6780 H       2  LIG2        0.0331
     21    H       23.8490    0.5870    3.7800 H       2  LIG2        0.0269
     22    H       24.8620    1.3000    4.9830 H       2  LIG2        0.0269
     23    H       28.8760    3.7920    3.0780 H       2  LIG2        0.0301
     24    H       26.1030    6.5150    3.7920 H       2  LIG2        0.0269
     25    H       26.3900    5.7590    5.3480 H       2  LIG2        0.0269
     26    H       23.7120    2.8690    2.6380 H       2  LIG2        0.0293
     27    H       22.8140    2.6200    4.1030 H       2  LIG2        0.0293
     28    H       27.5080   -1.3140    2.4920 H       2  LIG2        0.0235
     29    H       28.9060   -0.2400    2.5350 H       2  LIG2        0.0235
     30    H       27.6360    0.0130    1.3490 H       2  LIG2        0.0235
     31    H       27.0440   -0.8140    5.0180 H       2  LIG2        0.0235
     32    H       26.8880    0.8270    5.5980 H       2  LIG2        0.0235
     33    H       28.4450    0.2480    5.0580 H       2  LIG2        0.0235
     34    H       28.6140    6.0910    4.6920 H       2  LIG2        0.0268
     35    H       28.2410    5.9230    2.9890 H       2  LIG2        0.0268
     36    H       28.8410    3.8180    6.1310 H       2  LIG2        0.0233
     37    H       30.2350    4.1430    5.1040 H       2  LIG2        0.0233
     38    H       29.5130    2.5390    5.1220 H       2  LIG2        0.0233
     39    H       25.0570    3.1900    6.3110 H       2  LIG2        0.0257
     40    H       23.3830    3.6920    6.2200 H       2  LIG2        0.0257
     41    H       24.6410    4.8920    6.3550 H       2  LIG2        0.0257
     42    H       23.8830    5.8540    4.4420 H       2  LIG2        0.2102
@<TRIPOS>BOND
     1    30    12    1
     2    18     4    1
     3    17     2    1
     4    12    28    1
     5    12    29    1
     6    12     3    1
     7    26    11    1
     8    20     6    1
     9     4     2    1
    10     4     3    1
    11     4     7    1
    12    35    14    1
    13     2     3    1
    14     2     5    1
    15    23     8    1
    16     3    13    1
    17    11     7    1
    18    11    27    1
    19    11     9    1
    20     6     5    1
    21     6    10    1
    22     6     9    1
    23    21     7    1
    24    24    10    1
    25     7    22    1
    26     1     9    1
    27     1    42    1
    28    14     8    1
    29    14    10    1
    30    14    34    1
    31     8     5    1
    32     8    15    1
    33     5    19    1
    34    10    25    1
    35     9    16    1
    36    13    31    1
    37    13    33    1
    38    13    32    1
    39    37    15    1
    40    38    15    1
    41    15    36    1
    42    16    40    1
    43    16    39    1
    44    16    41    1
@<TRIPOS>MOLECULE
11996452_3_run_3.pdb
 42 44 0 0 0
SMALL
GASTEIGER

@<TRIPOS>ATOM
      1    O       25.6830    4.5990    3.2670 O.3     2  LIG2       -0.3886
      2    C       28.0420    0.6870    3.2430 C.3     2  LIG2       -0.0289
      3    C       27.5430   -0.7480    3.2070 C.3     2  LIG2       -0.0284
      4    C       26.8580    0.2960    2.3500 C.3     2  LIG2       -0.0319
      5    C       27.8070    1.6450    4.4400 C.3     2  LIG2       -0.0294
      6    C       27.3790    3.0690    4.0060 C.3     2  LIG2       -0.0090
      7    C       25.4530    0.8640    2.6440 C.3     2  LIG2       -0.0468
      8    C       29.0740    1.8140    5.3190 C.3     2  LIG2       -0.0404
      9    C       25.8540    3.2560    3.6870 C.3     2  LIG2        0.0664
     10    C       27.9350    3.9770    5.1210 C.3     2  LIG2       -0.0471
     11    C       25.3600    2.3980    2.4870 C.3     2  LIG2       -0.0237
     12    C       28.4370   -1.7660    2.4750 C.3     2  LIG2       -0.0593
     13    C       26.8280   -1.3860    4.4200 C.3     2  LIG2       -0.0593
     14    C       29.2380    3.3230    5.5730 C.3     2  LIG2       -0.0498
     15    C       29.0530    0.9680    6.6050 C.3     2  LIG2       -0.0621
     16    C       24.9020    3.0800    4.8990 C.3     2  LIG2       -0.0358
     17    H       28.9700    0.9190    2.7190 H       2  LIG2        0.0312
     18    H       27.0230    0.2050    1.2750 H       2  LIG2        0.0309
     19    H       27.0180    1.2650    5.0820 H       2  LIG2        0.0310
     20    H       27.9360    3.3210    3.0990 H       2  LIG2        0.0331
     21    H       24.7680    0.4140    1.9240 H       2  LIG2        0.0269
     22    H       25.0740    0.5640    3.6170 H       2  LIG2        0.0269
     23    H       29.9510    1.5020    4.7490 H       2  LIG2        0.0301
     24    H       28.1050    4.9950    4.7710 H       2  LIG2        0.0269
     25    H       27.2530    4.0380    5.9690 H       2  LIG2        0.0269
     26    H       25.9100    2.6740    1.5860 H       2  LIG2        0.0293
     27    H       24.3170    2.6460    2.2760 H       2  LIG2        0.0293
     28    H       27.8490   -2.6070    2.1060 H       2  LIG2        0.0235
     29    H       29.2050   -2.1610    3.1410 H       2  LIG2        0.0235
     30    H       28.9460   -1.3260    1.6180 H       2  LIG2        0.0235
     31    H       26.1990   -2.2170    4.0990 H       2  LIG2        0.0235
     32    H       26.1880   -0.7070    4.9770 H       2  LIG2        0.0235
     33    H       27.5560   -1.7830    5.1290 H       2  LIG2        0.0235
     34    H       29.4510    3.5550    6.6180 H       2  LIG2        0.0268
     35    H       30.0720    3.7110    4.9870 H       2  LIG2        0.0268
     36    H       28.2140    1.2400    7.2470 H       2  LIG2        0.0233
     37    H       29.9690    1.1050    7.1820 H       2  LIG2        0.0233
     38    H       28.9670   -0.0940    6.3740 H       2  LIG2        0.0233
     39    H       24.9830    2.0950    5.3550 H       2  LIG2        0.0257
     40    H       23.8580    3.2060    4.6060 H       2  LIG2        0.0257
     41    H       25.0860    3.8130    5.6840 H       2  LIG2        0.0257
     42    H       26.2780    4.7660    2.5330 H       2  LIG2        0.2102
@<TRIPOS>BOND
     1    18     4    1
     2    26    11    1
     3    30    12    1
     4    21     7    1
     5    28    12    1
     6    27    11    1
     7     4     7    1
     8     4     3    1
     9     4     2    1
    10    12    29    1
    11    12     3    1
    12    11     7    1
    13    11     9    1
    14    42     1    1
    15     7    22    1
    16    17     2    1
    17    20     6    1
    18     3     2    1
    19     3    13    1
    20     2     5    1
    21     1     9    1
    22     9     6    1
    23     9    16    1
    24     6     5    1
    25     6    10    1
    26    31    13    1
    27    13    32    1
    28    13    33    1
    29     5    19    1
    30     5     8    1
    31    40    16    1
    32    23     8    1
    33    24    10    1
    34    16    39    1
    35    16    41    1
    36    35    14    1
    37    10    14    1
    38    10    25    1
    39     8    14    1
    40     8    15    1
    41    14    34    1
    42    38    15    1
    43    15    37    1
    44    15    36    1
@<TRIPOS>MOLECULE
11996452_3_run_11.pdb
 42 44 0 0 0
SMALL
GASTEIGER

@<TRIPOS>ATOM
      1    O       28.6730   -0.8590    2.7770 O.3     2  LIG2       -0.3886
      2    C       27.5590    3.4370    3.8600 C.3     2  LIG2       -0.0289
      3    C       27.7320    4.1830    5.1720 C.3     2  LIG2       -0.0284
      4    C       28.8390    3.2710    4.6880 C.3     2  LIG2       -0.0319
      5    C       26.6060    2.2260    3.6840 C.3     2  LIG2       -0.0294
      6    C       27.2390    1.0640    2.8790 C.3     2  LIG2       -0.0090
      7    C       29.1700    1.9050    5.3270 C.3     2  LIG2       -0.0468
      8    C       25.2950    2.6080    2.9480 C.3     2  LIG2       -0.0404
      9    C       28.1610    0.0910    3.6960 C.3     2  LIG2        0.0664
     10    C       26.0360    0.4000    2.1800 C.3     2  LIG2       -0.0471
     11    C       29.4190    0.7830    4.2960 C.3     2  LIG2       -0.0237
     12    C       27.9890    5.6990    5.0700 C.3     2  LIG2       -0.0593
     13    C       26.8890    3.8320    6.4200 C.3     2  LIG2       -0.0593
     14    C       25.0640    1.5350    1.8700 C.3     2  LIG2       -0.0498
     15    C       24.0930    2.8110    3.8880 C.3     2  LIG2       -0.0621
     16    C       27.4370   -0.7420    4.7860 C.3     2  LIG2       -0.0358
     17    H       27.6680    4.0000    2.9320 H       2  LIG2        0.0312
     18    H       29.7480    3.7720    4.3500 H       2  LIG2        0.0309
     19    H       26.3260    1.8190    4.6510 H       2  LIG2        0.0310
     20    H       27.8510    1.5040    2.0860 H       2  LIG2        0.0331
     21    H       30.0850    2.0340    5.9060 H       2  LIG2        0.0269
     22    H       28.4230    1.5890    6.0510 H       2  LIG2        0.0269
     23    H       25.4430    3.5500    2.4160 H       2  LIG2        0.0301
     24    H       26.3310   -0.1260    1.2730 H       2  LIG2        0.0269
     25    H       25.5440   -0.3250    2.8280 H       2  LIG2        0.0269
     26    H       30.0290    1.1990    3.4920 H       2  LIG2        0.0293
     27    H       30.0480    0.0280    4.7730 H       2  LIG2        0.0293
     28    H       28.5280    6.0630    5.9450 H       2  LIG2        0.0235
     29    H       27.0510    6.2500    5.0000 H       2  LIG2        0.0235
     30    H       28.5820    5.9570    4.1930 H       2  LIG2        0.0235
     31    H       27.4020    4.1490    7.3290 H       2  LIG2        0.0235
     32    H       26.6720    2.7740    6.5360 H       2  LIG2        0.0235
     33    H       25.9280    4.3480    6.3900 H       2  LIG2        0.0235
     34    H       24.0340    1.1730    1.8470 H       2  LIG2        0.0268
     35    H       25.2750    1.9460    0.8820 H       2  LIG2        0.0268
     36    H       23.8620    1.9000    4.4410 H       2  LIG2        0.0233
     37    H       23.2000    3.0950    3.3300 H       2  LIG2        0.0233
     38    H       24.2920    3.6010    4.6140 H       2  LIG2        0.0233
     39    H       26.9440   -0.1170    5.5300 H       2  LIG2        0.0257
     40    H       28.1350   -1.3820    5.3260 H       2  LIG2        0.0257
     41    H       26.6780   -1.4030    4.3700 H       2  LIG2        0.0257
     42    H       29.1900   -0.3930    2.1150 H       2  LIG2        0.2102
@<TRIPOS>BOND
     1    35    14    1
     2    24    10    1
     3    34    14    1
     4    14    10    1
     5    14     8    1
     6    20     6    1
     7    42     1    1
     8    10    25    1
     9    10     6    1
    10    23     8    1
    11     1     9    1
    12     6     5    1
    13     6     9    1
    14    17     2    1
    15     8     5    1
    16     8    15    1
    17    37    15    1
    18    26    11    1
    19     5     2    1
    20     5    19    1
    21     9    11    1
    22     9    16    1
    23     2     4    1
    24     2     3    1
    25    15    36    1
    26    15    38    1
    27    30    12    1
    28    11    27    1
    29    11     7    1
    30    18     4    1
    31    41    16    1
    32     4     3    1
    33     4     7    1
    34    16    40    1
    35    16    39    1
    36    29    12    1
    37    12     3    1
    38    12    28    1
    39     3    13    1
    40     7    21    1
    41     7    22    1
    42    33    13    1
    43    13    32    1
    44    13    31    1
@<TRIPOS>MOLECULE
11996452_3_run_1.pdb
 42 44 0 0 0
SMALL
GASTEIGER

@<TRIPOS>ATOM
      1    O       30.1990   -0.9240    4.3550 O.3     2  LIG2       -0.3886
      2    C       26.4340    1.6420    4.6960 C.3     2  LIG2       -0.0289
      3    C       25.1710    1.6290    3.8510 C.3     2  LIG2       -0.0284
      4    C       25.8190    0.3150    4.2330 C.3     2  LIG2       -0.0319
      5    C       27.8230    2.0640    4.1520 C.3     2  LIG2       -0.0294
      6    C       28.9680    1.1220    4.6030 C.3     2  LIG2       -0.0090
      7    C       26.5880   -0.5850    3.2430 C.3     2  LIG2       -0.0468
      8    C       28.2250    3.4930    4.6060 C.3     2  LIG2       -0.0404
      9    C       29.1470   -0.1860    3.7550 C.3     2  LIG2        0.0664
     10    C       30.2020    2.0430    4.6620 C.3     2  LIG2       -0.0471
     11    C       27.9150   -1.1360    3.8090 C.3     2  LIG2       -0.0237
     12    C       23.8600    1.9910    4.5720 C.3     2  LIG2       -0.0593
     13    C       25.1720    2.1310    2.3880 C.3     2  LIG2       -0.0593
     14    C       29.6770    3.4060    5.1050 C.3     2  LIG2       -0.0498
     15    C       28.0040    4.5700    3.5290 C.3     2  LIG2       -0.0621
     16    C       29.5880    0.0370    2.2850 C.3     2  LIG2       -0.0358
     17    H       26.3350    1.8590    5.7600 H       2  LIG2        0.0312
     18    H       25.2690   -0.2870    4.9580 H       2  LIG2        0.0309
     19    H       27.8250    2.0590    3.0660 H       2  LIG2        0.0310
     20    H       28.7600    0.8190    5.6330 H       2  LIG2        0.0331
     21    H       25.9450   -1.4360    3.0160 H       2  LIG2        0.0269
     22    H       26.7620   -0.1030    2.2840 H       2  LIG2        0.0269
     23    H       27.6200    3.7800    5.4690 H       2  LIG2        0.0301
     24    H       30.9580    1.6680    5.3520 H       2  LIG2        0.0269
     25    H       30.6780    2.1430    3.6870 H       2  LIG2        0.0269
     26    H       27.7340   -1.4460    4.8400 H       2  LIG2        0.0293
     27    H       28.1500   -2.0560    3.2680 H       2  LIG2        0.0293
     28    H       23.0020    1.5430    4.0710 H       2  LIG2        0.0235
     29    H       23.7100    3.0710    4.5930 H       2  LIG2        0.0235
     30    H       23.8490    1.6430    5.6050 H       2  LIG2        0.0235
     31    H       24.3470    1.6850    1.8310 H       2  LIG2        0.0235
     32    H       26.0800    1.9070    1.8340 H       2  LIG2        0.0235
     33    H       25.0430    3.2130    2.3540 H       2  LIG2        0.0235
     34    H       30.3060    4.2120    4.7210 H       2  LIG2        0.0268
     35    H       29.7030    3.4790    6.1930 H       2  LIG2        0.0268
     36    H       28.5980    4.3690    2.6360 H       2  LIG2        0.0233
     37    H       28.2820    5.5590    3.8960 H       2  LIG2        0.0233
     38    H       26.9560    4.6150    3.2280 H       2  LIG2        0.0233
     39    H       28.8820    0.6490    1.7260 H       2  LIG2        0.0257
     40    H       29.6770   -0.9090    1.7490 H       2  LIG2        0.0257
     41    H       30.5610    0.5210    2.2100 H       2  LIG2        0.0257
     42    H       31.0250   -0.4610    4.1920 H       2  LIG2        0.2102
@<TRIPOS>BOND
     1    39    16    1
     2    40    16    1
     3    31    13    1
     4    32    13    1
     5    41    16    1
     6    22     7    1
     7    16     9    1
     8    33    13    1
     9    13     3    1
    10    36    15    1
    11    21     7    1
    12    19     5    1
    13    38    15    1
    14     7    11    1
    15     7     4    1
    16    27    11    1
    17    15    37    1
    18    15     8    1
    19    25    10    1
    20     9    11    1
    21     9     1    1
    22     9     6    1
    23    11    26    1
    24     3     4    1
    25     3    12    1
    26     3     2    1
    27    28    12    1
    28     5     6    1
    29     5     8    1
    30     5     2    1
    31    42     1    1
    32     4     2    1
    33     4    18    1
    34    12    29    1
    35    12    30    1
    36     6    10    1
    37     6    20    1
    38     8    14    1
    39     8    23    1
    40    10    14    1
    41    10    24    1
    42     2    17    1
    43    34    14    1
    44    14    35    1
@<TRIPOS>MOLECULE
11996452_3_run_21.pdb
 42 44 0 0 0
SMALL
GASTEIGER

@<TRIPOS>ATOM
      1    O       24.3370    4.4960    5.6330 O.3     2  LIG2       -0.3886
      2    C       27.3280    1.1440    4.8000 C.3     2  LIG2       -0.0289
      3    C       28.8460    1.1870    4.7530 C.3     2  LIG2       -0.0284
      4    C       28.1170    1.9640    5.8290 C.3     2  LIG2       -0.0319
      5    C       26.4180    1.8780    3.7810 C.3     2  LIG2       -0.0294
      6    C       25.2230    2.6080    4.4450 C.3     2  LIG2       -0.0090
      7    C       27.9920    3.5020    5.8450 C.3     2  LIG2       -0.0468
      8    C       25.8140    0.9130    2.7260 C.3     2  LIG2       -0.0404
      9    C       25.5350    4.0280    5.0360 C.3     2  LIG2        0.0664
     10    C       24.1230    2.5700    3.3660 C.3     2  LIG2       -0.0471
     11    C       26.5750    4.0050    6.1940 C.3     2  LIG2       -0.0237
     12    C       29.5820   -0.0900    5.1980 C.3     2  LIG2       -0.0593
     13    C       29.5990    1.9080    3.6110 C.3     2  LIG2       -0.0593
     14    C       24.3160    1.2490    2.6270 C.3     2  LIG2       -0.0498
     15    C       26.5460    0.9390    1.3730 C.3     2  LIG2       -0.0621
     16    C       25.9210    5.1060    3.9900 C.3     2  LIG2       -0.0358
     17    H       26.8530    0.2400    5.1840 H       2  LIG2        0.0312
     18    H       28.2180    1.5720    6.8420 H       2  LIG2        0.0309
     19    H       26.9830    2.6320    3.2420 H       2  LIG2        0.0310
     20    H       24.8680    1.9820    5.2680 H       2  LIG2        0.0331
     21    H       28.6740    3.8720    6.6120 H       2  LIG2        0.0269
     22    H       28.3350    3.9610    4.9210 H       2  LIG2        0.0269
     23    H       25.8750   -0.1110    3.1000 H       2  LIG2        0.0301
     24    H       23.1250    2.6390    3.7990 H       2  LIG2        0.0269
     25    H       24.2240    3.3930    2.6580 H       2  LIG2        0.0269
     26    H       26.1970    3.3930    7.0150 H       2  LIG2        0.0293
     27    H       26.6720    5.0130    6.6050 H       2  LIG2        0.0293
     28    H       30.5840    0.1430    5.5610 H       2  LIG2        0.0235
     29    H       29.6800   -0.7940    4.3710 H       2  LIG2        0.0235
     30    H       29.0590   -0.6070    6.0030 H       2  LIG2        0.0235
     31    H       30.6010    2.1930    3.9340 H       2  LIG2        0.0235
     32    H       29.1170    2.8150    3.2530 H       2  LIG2        0.0235
     33    H       29.7080    1.2500    2.7480 H       2  LIG2        0.0235
     34    H       23.9660    1.3220    1.5960 H       2  LIG2        0.0268
     35    H       23.7260    0.4660    3.1050 H       2  LIG2        0.0268
     36    H       26.5080    1.9290    0.9180 H       2  LIG2        0.0233
     37    H       26.0990    0.2340    0.6700 H       2  LIG2        0.0233
     38    H       27.5950    0.6660    1.4890 H       2  LIG2        0.0233
     39    H       26.8040    4.8320    3.4150 H       2  LIG2        0.0257
     40    H       26.1410    6.0620    4.4680 H       2  LIG2        0.0257
     41    H       25.1210    5.3000    3.2760 H       2  LIG2        0.0257
     42    H       24.0870    3.8860    6.3310 H       2  LIG2        0.2102
@<TRIPOS>BOND
     1    37    15    1
     2    36    15    1
     3    15    38    1
     4    15     8    1
     5    34    14    1
     6    14     8    1
     7    14    35    1
     8    14    10    1
     9    25    10    1
    10     8    23    1
    11     8     5    1
    12    33    13    1
    13    19     5    1
    14    32    13    1
    15    41    16    1
    16    10    24    1
    17    10     6    1
    18    39    16    1
    19    13    31    1
    20    13     3    1
    21     5     6    1
    22     5     2    1
    23    16    40    1
    24    16     9    1
    25    29    12    1
    26     6     9    1
    27     6    20    1
    28     3     2    1
    29     3    12    1
    30     3     4    1
    31     2    17    1
    32     2     4    1
    33    22     7    1
    34     9     1    1
    35     9    11    1
    36    12    28    1
    37    12    30    1
    38     1    42    1
    39     4     7    1
    40     4    18    1
    41     7    11    1
    42     7    21    1
    43    11    27    1
    44    11    26    1
@<TRIPOS>MOLECULE
11996452_3_run_17.pdb
 42 44 0 0 0
SMALL
GASTEIGER

@<TRIPOS>ATOM
      1    O       30.0150    4.0300    4.8550 O.3     2  LIG2       -0.3886
      2    C       26.6410    1.7250    2.8110 C.3     2  LIG2       -0.0289
      3    C       25.1380    1.9280    2.8940 C.3     2  LIG2       -0.0284
      4    C       26.0450    3.1380    2.8110 C.3     2  LIG2       -0.0319
      5    C       27.5100    1.2680    4.0110 C.3     2  LIG2       -0.0294
      6    C       28.8320    2.0650    4.1470 C.3     2  LIG2       -0.0090
      7    C       26.3200    4.0890    3.9950 C.3     2  LIG2       -0.0468
      8    C       27.9070   -0.2300    3.9180 C.3     2  LIG2       -0.0404
      9    C       28.7220    3.4470    4.8820 C.3     2  LIG2        0.0664
     10    C       29.8080    1.0560    4.7820 C.3     2  LIG2       -0.0471
     11    C       27.8090    4.4710    4.1480 C.3     2  LIG2       -0.0237
     12    C       24.3290    1.5810    1.6300 C.3     2  LIG2       -0.0593
     13    C       24.3470    1.6020    4.1820 C.3     2  LIG2       -0.0593
     14    C       29.4120   -0.3080    4.2220 C.3     2  LIG2       -0.0498
     15    C       27.0470   -1.1540    4.7990 C.3     2  LIG2       -0.0621
     16    C       28.3400    3.3660    6.3830 C.3     2  LIG2       -0.0358
     17    H       27.0610    1.3920    1.8610 H       2  LIG2        0.0312
     18    H       26.0090    3.6890    1.8700 H       2  LIG2        0.0309
     19    H       26.9700    1.4000    4.9440 H       2  LIG2        0.0310
     20    H       29.2060    2.2600    3.1370 H       2  LIG2        0.0331
     21    H       25.7590    5.0060    3.8080 H       2  LIG2        0.0269
     22    H       25.9320    3.7100    4.9370 H       2  LIG2        0.0269
     23    H       27.7840   -0.5700    2.8880 H       2  LIG2        0.0301
     24    H       30.8470    1.2920    4.5510 H       2  LIG2        0.0269
     25    H       29.7170    1.0360    5.8680 H       2  LIG2        0.0269
     26    H       28.2060    4.6710    3.1510 H       2  LIG2        0.0293
     27    H       27.8530    5.4280    4.6740 H       2  LIG2        0.0293
     28    H       23.3970    2.1460    1.5960 H       2  LIG2        0.0235
     29    H       24.0790    0.5200    1.6050 H       2  LIG2        0.0235
     30    H       24.8780    1.8060    0.7150 H       2  LIG2        0.0235
     31    H       23.4160    2.1700    4.2120 H       2  LIG2        0.0235
     32    H       24.8770    1.8230    5.1050 H       2  LIG2        0.0235
     33    H       24.0870    0.5440    4.2150 H       2  LIG2        0.0235
     34    H       29.6610   -1.1070    4.9240 H       2  LIG2        0.0268
     35    H       29.9690   -0.5090    3.3060 H       2  LIG2        0.0268
     36    H       27.1360   -0.8940    5.8540 H       2  LIG2        0.0233
     37    H       27.3490   -2.1970    4.6880 H       2  LIG2        0.0233
     38    H       25.9930   -1.0870    4.5270 H       2  LIG2        0.0233
     39    H       27.3800    2.8760    6.5430 H       2  LIG2        0.0257
     40    H       28.2640    4.3590    6.8270 H       2  LIG2        0.0257
     41    H       29.0780    2.8240    6.9730 H       2  LIG2        0.0257
     42    H       30.2780    4.1430    3.9390 H       2  LIG2        0.2102
@<TRIPOS>BOND
     1    30    12    1
     2    28    12    1
     3    29    12    1
     4    12     3    1
     5    17     2    1
     6    18     4    1
     7     2     4    1
     8     2     3    1
     9     2     5    1
    10     4     3    1
    11     4     7    1
    12    23     8    1
    13     3    13    1
    14    20     6    1
    15    26    11    1
    16    35    14    1
    17    21     7    1
    18     8     5    1
    19     8    14    1
    20     8    15    1
    21    42     1    1
    22     7    11    1
    23     7    22    1
    24     5     6    1
    25     5    19    1
    26     6    10    1
    27     6     9    1
    28    11    27    1
    29    11     9    1
    30    13    31    1
    31    13    33    1
    32    13    32    1
    33    14    10    1
    34    14    34    1
    35    38    15    1
    36    24    10    1
    37    37    15    1
    38    10    25    1
    39    15    36    1
    40     1     9    1
    41     9    16    1
    42    16    39    1
    43    16    40    1
    44    16    41    1
@<TRIPOS>MOLECULE
11996452_3_run_24.pdb
 42 44 0 0 0
SMALL
GASTEIGER

@<TRIPOS>ATOM
      1    O       24.0110    0.3870    2.7620 O.3     2  LIG2       -0.3886
      2    C       27.2950    2.1950    5.3740 C.3     2  LIG2       -0.0289
      3    C       27.9380    3.5700    5.3120 C.3     2  LIG2       -0.0284
      4    C       26.4440    3.4420    5.1050 C.3     2  LIG2       -0.0319
      5    C       27.4490    1.1260    4.2610 C.3     2  LIG2       -0.0294
      6    C       26.1190    0.4130    3.9100 C.3     2  LIG2       -0.0090
      7    C       25.7460    3.6170    3.7390 C.3     2  LIG2       -0.0468
      8    C       28.4580    0.0120    4.6470 C.3     2  LIG2       -0.0404
      9    C       25.1810    1.1750    2.9090 C.3     2  LIG2        0.0664
     10    C       26.5620   -0.9920    3.4590 C.3     2  LIG2       -0.0471
     11    C       24.6740    2.5430    3.4500 C.3     2  LIG2       -0.0237
     12    C       28.4040    4.1700    6.6510 C.3     2  LIG2       -0.0593
     13    C       28.8790    3.9700    4.1520 C.3     2  LIG2       -0.0593
     14    C       27.7860   -1.3290    4.3060 C.3     2  LIG2       -0.0498
     15    C       29.8490    0.1870    4.0130 C.3     2  LIG2       -0.0621
     16    C       25.7460    1.3420    1.4750 C.3     2  LIG2       -0.0358
     17    H       27.1610    1.7370    6.3550 H       2  LIG2        0.0312
     18    H       25.8220    3.8340    5.9120 H       2  LIG2        0.0309
     19    H       27.8090    1.5820    3.3430 H       2  LIG2        0.0310
     20    H       25.5610    0.2760    4.8410 H       2  LIG2        0.0331
     21    H       25.2490    4.5870    3.7540 H       2  LIG2        0.0269
     22    H       26.4500    3.6750    2.9130 H       2  LIG2        0.0269
     23    H       28.6010    0.0160    5.7300 H       2  LIG2        0.0301
     24    H       25.7720   -1.7310    3.5950 H       2  LIG2        0.0269
     25    H       26.8400   -1.0090    2.4060 H       2  LIG2        0.0269
     26    H       24.1030    2.3880    4.3670 H       2  LIG2        0.0293
     27    H       23.9640    2.9680    2.7360 H       2  LIG2        0.0293
     28    H       28.4230    5.2590    6.6050 H       2  LIG2        0.0235
     29    H       29.4070    3.8270    6.9060 H       2  LIG2        0.0235
     30    H       27.7470    3.8930    7.4760 H       2  LIG2        0.0235
     31    H       28.9090    5.0550    4.0420 H       2  LIG2        0.0235
     32    H       28.5990    3.5660    3.1820 H       2  LIG2        0.0235
     33    H       29.8970    3.6330    4.3500 H       2  LIG2        0.0235
     34    H       28.4520   -2.0130    3.7760 H       2  LIG2        0.0268
     35    H       27.4780   -1.8370    5.2210 H       2  LIG2        0.0268
     36    H       29.7950    0.1680    2.9240 H       2  LIG2        0.0233
     37    H       30.5280   -0.6070    4.3260 H       2  LIG2        0.0233
     38    H       30.2970    1.1370    4.3070 H       2  LIG2        0.0233
     39    H       26.6890    1.8860    1.4580 H       2  LIG2        0.0257
     40    H       25.0540    1.8930    0.8370 H       2  LIG2        0.0257
     41    H       25.9190    0.3860    0.9810 H       2  LIG2        0.0257
     42    H       23.5340    0.3930    3.5960 H       2  LIG2        0.2102
@<TRIPOS>BOND
     1    40    16    1
     2    41    16    1
     3    39    16    1
     4    16     9    1
     5    25    10    1
     6    27    11    1
     7     1     9    1
     8     1    42    1
     9     9    11    1
    10     9     6    1
    11    22     7    1
    12    36    15    1
    13    32    13    1
    14    19     5    1
    15    11     7    1
    16    11    26    1
    17    10    24    1
    18    10     6    1
    19    10    14    1
    20     7    21    1
    21     7     4    1
    22    34    14    1
    23     6     5    1
    24     6    20    1
    25    15    38    1
    26    15    37    1
    27    15     8    1
    28    31    13    1
    29    13    33    1
    30    13     3    1
    31     5     8    1
    32     5     2    1
    33    14     8    1
    34    14    35    1
    35     8    23    1
    36     4     3    1
    37     4     2    1
    38     4    18    1
    39     3     2    1
    40     3    12    1
    41     2    17    1
    42    28    12    1
    43    12    29    1
    44    12    30    1
