@<TRIPOS>MOLECULE
5281519_run_8.pdb
 39 39 0 0 0
SMALL
GASTEIGER

@<TRIPOS>ATOM
      1    C       25.1100    3.1670    4.3300 C.3     2  LIG2       -0.0275
      2    C       26.4050    3.8970    4.7500 C.2     2  LIG2       -0.0668
      3    C       25.1160    2.4410    2.9500 C.3     2  LIG2       -0.0283
      4    C       27.2160    3.1790    5.8510 C.3     2  LIG2       -0.0130
      5    C       25.9250    1.1490    2.9150 C.2     2  LIG2       -0.0762
      6    C       28.8250    0.0650    4.0810 C.3     2  LIG2       -0.0286
      7    C       28.2350    0.0560    2.6380 C.3     2  LIG2       -0.0308
      8    C       28.7660    1.4390    4.7520 C.2     2  LIG2       -0.0759
      9    C       26.7740    5.0900    4.1990 C.2     2  LIG2       -0.0762
     10    C       27.6600    1.7870    5.4470 C.2     2  LIG2       -0.0810
     11    C       27.1780    1.1350    2.4110 C.2     2  LIG2       -0.0847
     12    C       25.2670   -0.0470    3.5930 C.3     2  LIG2       -0.0438
     13    C       29.8850    2.3950    4.3640 C.3     2  LIG2       -0.0438
     14    C       25.9810    5.8050    3.1060 C.3     2  LIG2       -0.0438
     15    C       28.0080    5.8910    4.6050 C.3     2  LIG2       -0.0438
     16    H       24.8130    2.4750    5.1190 H       2  LIG2        0.0313
     17    H       24.3060    3.9020    4.3270 H       2  LIG2        0.0313
     18    H       24.0930    2.2020    2.6580 H       2  LIG2        0.0313
     19    H       25.4820    3.1180    2.1780 H       2  LIG2        0.0313
     20    H       28.1020    3.7300    6.1500 H       2  LIG2        0.0352
     21    H       26.6110    3.1140    6.7560 H       2  LIG2        0.0352
     22    H       28.2510   -0.6360    4.6880 H       2  LIG2        0.0313
     23    H       29.8460   -0.3210    4.0920 H       2  LIG2        0.0313
     24    H       29.0340    0.2430    1.9190 H       2  LIG2        0.0310
     25    H       27.8410   -0.9280    2.3840 H       2  LIG2        0.0310
     26    H       26.9090    1.0300    5.6190 H       2  LIG2        0.0575
     27    H       27.5640    2.0470    1.9770 H       2  LIG2        0.0572
     28    H       24.9450    0.2020    4.6050 H       2  LIG2        0.0274
     29    H       25.9280   -0.9090    3.6640 H       2  LIG2        0.0274
     30    H       24.3890   -0.3570    3.0250 H       2  LIG2        0.0274
     31    H       30.8170    2.0860    4.8380 H       2  LIG2        0.0274
     32    H       29.6910    3.4230    4.6630 H       2  LIG2        0.0274
     33    H       30.0330    2.3930    3.2840 H       2  LIG2        0.0274
     34    H       25.6810    6.7970    3.4440 H       2  LIG2        0.0274
     35    H       25.0730    5.2920    2.7990 H       2  LIG2        0.0274
     36    H       26.5990    5.9200    2.2160 H       2  LIG2        0.0274
     37    H       27.8070    6.9630    4.5590 H       2  LIG2        0.0274
     38    H       28.8270    5.6820    3.9160 H       2  LIG2        0.0274
     39    H       28.3560    5.6990    5.6170 H       2  LIG2        0.0274
@<TRIPOS>BOND
     1    24     7    1
     2    27    11    1
     3    19     3    1
     4    36    14    1
     5    25     7    1
     6    11     7    1
     7    11     5    2
     8     7     6    1
     9    18     3    1
    10    35    14    1
    11     5     3    1
    12     5    12    1
    13     3     1    1
    14    30    12    1
    15    14    34    1
    16    14     9    1
    17    33    13    1
    18    12    29    1
    19    12    28    1
    20    38    15    1
    21     6    23    1
    22     6    22    1
    23     6     8    1
    24     9    15    1
    25     9     2    2
    26    17     1    1
    27     1     2    1
    28     1    16    1
    29    13    32    1
    30    13     8    1
    31    13    31    1
    32    37    15    1
    33    15    39    1
    34     2     4    1
    35     8    10    2
    36    10    26    1
    37    10     4    1
    38     4    20    1
    39     4    21    1
@<TRIPOS>MOLECULE
5281519_run_22.pdb
 39 39 0 0 0
SMALL
GASTEIGER

@<TRIPOS>ATOM
      1    C       27.4670    4.0260    3.7750 C.3     2  LIG2       -0.0275
      2    C       26.1530    3.2730    3.4750 C.2     2  LIG2       -0.0668
      3    C       28.1880    3.6960    5.1180 C.3     2  LIG2       -0.0283
      4    C       26.2770    2.1730    2.3980 C.3     2  LIG2       -0.0130
      5    C       28.8880    2.3420    5.1470 C.2     2  LIG2       -0.0762
      6    C       28.2610   -0.7420    4.1250 C.3     2  LIG2       -0.0286
      7    C       28.6730   -0.1910    5.5250 C.3     2  LIG2       -0.0308
      8    C       27.0630   -0.0110    3.5150 C.2     2  LIG2       -0.0759
      9    C       24.9820    3.5840    4.1020 C.2     2  LIG2       -0.0762
     10    C       27.2760    1.0940    2.7660 C.2     2  LIG2       -0.0810
     11    C       28.3000    1.2760    5.7310 C.2     2  LIG2       -0.0847
     12    C       30.2000    2.2730    4.3730 C.3     2  LIG2       -0.0438
     13    C       25.7020   -0.4710    4.0190 C.3     2  LIG2       -0.0438
     14    C       24.8490    4.6670    5.1720 C.3     2  LIG2       -0.0438
     15    C       23.6370    2.9200    3.8150 C.3     2  LIG2       -0.0438
     16    H       28.1560    3.9020    2.9380 H       2  LIG2        0.0313
     17    H       27.2460    5.0930    3.7580 H       2  LIG2        0.0313
     18    H       28.9340    4.4620    5.3310 H       2  LIG2        0.0313
     19    H       27.4770    3.7530    5.9430 H       2  LIG2        0.0313
     20    H       25.3330    1.6840    2.1820 H       2  LIG2        0.0352
     21    H       26.5740    2.6300    1.4530 H       2  LIG2        0.0352
     22    H       29.1110   -0.6270    3.4510 H       2  LIG2        0.0313
     23    H       28.0730   -1.8160    4.1640 H       2  LIG2        0.0313
     24    H       28.1590   -0.7590    6.3020 H       2  LIG2        0.0310
     25    H       29.7370   -0.3480    5.7070 H       2  LIG2        0.0310
     26    H       28.2940    1.3470    2.5100 H       2  LIG2        0.0575
     27    H       27.3530    1.4250    6.2300 H       2  LIG2        0.0572
     28    H       30.0770    2.6430    3.3550 H       2  LIG2        0.0274
     29    H       30.5990    1.2620    4.3070 H       2  LIG2        0.0274
     30    H       30.9530    2.8880    4.8690 H       2  LIG2        0.0274
     31    H       25.4600   -1.4450    3.5930 H       2  LIG2        0.0274
     32    H       24.8970    0.2120    3.7550 H       2  LIG2        0.0274
     33    H       25.7070   -0.5630    5.1050 H       2  LIG2        0.0274
     34    H       24.1260    5.4200    4.8610 H       2  LIG2        0.0274
     35    H       25.7740    5.1950    5.3950 H       2  LIG2        0.0274
     36    H       24.5020    4.2240    6.1050 H       2  LIG2        0.0274
     37    H       22.8230    3.6430    3.8960 H       2  LIG2        0.0274
     38    H       23.4510    2.1330    4.5450 H       2  LIG2        0.0274
     39    H       23.5520    2.4900    2.8190 H       2  LIG2        0.0274
@<TRIPOS>BOND
     1    21     4    1
     2    20     4    1
     3     4    10    1
     4     4     2    1
     5    26    10    1
     6    10     8    2
     7    39    15    1
     8    16     1    1
     9    28    12    1
    10    22     6    1
    11     2     1    1
    12     2     9    2
    13     8    13    1
    14     8     6    1
    15    31    13    1
    16    32    13    1
    17    17     1    1
    18     1     3    1
    19    15    37    1
    20    15     9    1
    21    15    38    1
    22    13    33    1
    23     9    14    1
    24     6    23    1
    25     6     7    1
    26    29    12    1
    27    12    30    1
    28    12     5    1
    29    34    14    1
    30     3     5    1
    31     3    18    1
    32     3    19    1
    33     5    11    2
    34    14    35    1
    35    14    36    1
    36     7    25    1
    37     7    11    1
    38     7    24    1
    39    11    27    1
@<TRIPOS>MOLECULE
5281519_run_1.pdb
 39 39 0 0 0
SMALL
GASTEIGER

@<TRIPOS>ATOM
      1    C       25.5340    0.8330    2.9350 C.3     2  LIG2       -0.0275
      2    C       27.0510    0.5910    3.0960 C.2     2  LIG2       -0.0668
      3    C       24.7540    1.3350    4.1890 C.3     2  LIG2       -0.0283
      4    C       27.9440    1.6610    2.4300 C.3     2  LIG2       -0.0130
      5    C       25.0080    2.7940    4.5530 C.2     2  LIG2       -0.0762
      6    C       27.5970    4.8480    4.6980 C.3     2  LIG2       -0.0286
      7    C       26.5190    4.4840    5.7640 C.3     2  LIG2       -0.0308
      8    C       28.2650    3.6230    4.0680 C.2     2  LIG2       -0.0759
      9    C       27.5430   -0.4980    3.7550 C.2     2  LIG2       -0.0762
     10    C       27.7050    3.0550    2.9770 C.2     2  LIG2       -0.0810
     11    C       25.8790    3.1160    5.5340 C.2     2  LIG2       -0.0847
     12    C       24.3160    3.8150    3.6580 C.3     2  LIG2       -0.0438
     13    C       29.3870    3.0060    4.8910 C.3     2  LIG2       -0.0438
     14    C       26.6690   -1.5590    4.4210 C.3     2  LIG2       -0.0438
     15    C       29.0270   -0.8270    3.9030 C.3     2  LIG2       -0.0438
     16    H       25.3610    1.5030    2.0920 H       2  LIG2        0.0313
     17    H       25.0850   -0.1040    2.6050 H       2  LIG2        0.0313
     18    H       23.6830    1.2130    4.0280 H       2  LIG2        0.0313
     19    H       24.9870    0.7020    5.0460 H       2  LIG2        0.0313
     20    H       29.0030    1.4480    2.5290 H       2  LIG2        0.0352
     21    H       27.7610    1.6620    1.3550 H       2  LIG2        0.0352
     22    H       27.1120    5.4180    3.9040 H       2  LIG2        0.0313
     23    H       28.3500    5.5210    5.1120 H       2  LIG2        0.0313
     24    H       26.9830    4.4530    6.7500 H       2  LIG2        0.0310
     25    H       25.7560    5.2610    5.8260 H       2  LIG2        0.0310
     26    H       26.8790    3.5650    2.5040 H       2  LIG2        0.0575
     27    H       26.3400    2.3140    6.0920 H       2  LIG2        0.0572
     28    H       24.5220    3.6190    2.6050 H       2  LIG2        0.0274
     29    H       24.6260    4.8380    3.8660 H       2  LIG2        0.0274
     30    H       23.2370    3.7660    3.8080 H       2  LIG2        0.0274
     31    H       30.2710    3.6430    4.8470 H       2  LIG2        0.0274
     32    H       29.6780    2.0180    4.5420 H       2  LIG2        0.0274
     33    H       29.0870    2.9080    5.9340 H       2  LIG2        0.0274
     34    H       26.8720   -2.5400    3.9920 H       2  LIG2        0.0274
     35    H       25.5990   -1.3900    4.3190 H       2  LIG2        0.0274
     36    H       26.8850   -1.6000    5.4880 H       2  LIG2        0.0274
     37    H       29.1890   -1.9060    3.8650 H       2  LIG2        0.0274
     38    H       29.3880   -0.4750    4.8690 H       2  LIG2        0.0274
     39    H       29.6610   -0.4050    3.1270 H       2  LIG2        0.0274
@<TRIPOS>BOND
     1    21     4    1
     2    16     1    1
     3     4    20    1
     4     4    10    1
     5     4     2    1
     6    26    10    1
     7    28    12    1
     8    17     1    1
     9     1     2    1
    10     1     3    1
    11    10     8    2
    12     2     9    2
    13    39    15    1
    14    12    30    1
    15    12    29    1
    16    12     5    1
    17     9    15    1
    18     9    14    1
    19    37    15    1
    20    15    38    1
    21    22     6    1
    22    34    14    1
    23    18     3    1
    24     8     6    1
    25     8    13    1
    26     3     5    1
    27     3    19    1
    28    35    14    1
    29    14    36    1
    30    32    13    1
    31     5    11    2
    32     6    23    1
    33     6     7    1
    34    31    13    1
    35    13    33    1
    36    11     7    1
    37    11    27    1
    38     7    25    1
    39     7    24    1
@<TRIPOS>MOLECULE
5281519_run_6.pdb
 39 39 0 0 0
SMALL
GASTEIGER

@<TRIPOS>ATOM
      1    C       28.5730    0.8260    5.4960 C.3     2  LIG2       -0.0275
      2    C       27.8730   -0.0030    4.3960 C.2     2  LIG2       -0.0668
      3    C       29.1680    2.2060    5.0790 C.3     2  LIG2       -0.0283
      4    C       26.3320   -0.0280    4.4970 C.3     2  LIG2       -0.0130
      5    C       28.1320    3.2960    4.8350 C.2     2  LIG2       -0.0762
      6    C       25.1680    3.5540    3.3860 C.3     2  LIG2       -0.0286
      7    C       26.4800    4.3730    3.1860 C.3     2  LIG2       -0.0308
      8    C       25.3790    2.0410    3.2940 C.2     2  LIG2       -0.0759
      9    C       28.5760   -0.6710    3.4360 C.2     2  LIG2       -0.0762
     10    C       25.7100    1.3520    4.4090 C.2     2  LIG2       -0.0810
     11    C       27.7400    3.6040    3.5800 C.2     2  LIG2       -0.0847
     12    C       27.5090    3.8930    6.0920 C.3     2  LIG2       -0.0438
     13    C       25.4290    1.4820    1.8790 C.3     2  LIG2       -0.0438
     14    C       30.1000   -0.6490    3.3250 C.3     2  LIG2       -0.0438
     15    C       27.9530   -1.5510    2.3550 C.3     2  LIG2       -0.0438
     16    H       27.8970    0.9470    6.3430 H       2  LIG2        0.0313
     17    H       29.3770    0.2140    5.9050 H       2  LIG2        0.0313
     18    H       29.8490    2.5590    5.8540 H       2  LIG2        0.0313
     19    H       29.7870    2.0870    4.1890 H       2  LIG2        0.0313
     20    H       25.8690   -0.6440    3.7330 H       2  LIG2        0.0352
     21    H       26.0430   -0.4920    5.4400 H       2  LIG2        0.0352
     22    H       24.7720    3.7840    4.3760 H       2  LIG2        0.0313
     23    H       24.3930    3.8740    2.6890 H       2  LIG2        0.0313
     24    H       26.5860    4.6330    2.1320 H       2  LIG2        0.0310
     25    H       26.4290    5.3250    3.7160 H       2  LIG2        0.0310
     26    H       25.6840    1.8720    5.3550 H       2  LIG2        0.0575
     27    H       28.2250    3.1010    2.7550 H       2  LIG2        0.0572
     28    H       27.1270    3.1130    6.7500 H       2  LIG2        0.0274
     29    H       26.6840    4.5690    5.8740 H       2  LIG2        0.0274
     30    H       28.2600    4.4630    6.6410 H       2  LIG2        0.0274
     31    H       24.4270    1.4770    1.4480 H       2  LIG2        0.0274
     32    H       25.8100    0.4640    1.8360 H       2  LIG2        0.0274
     33    H       26.0710    2.0970    1.2470 H       2  LIG2        0.0274
     34    H       30.4990   -1.6600    3.3980 H       2  LIG2        0.0274
     35    H       30.5990   -0.0600    4.0910 H       2  LIG2        0.0274
     36    H       30.3940   -0.2340    2.3610 H       2  LIG2        0.0274
     37    H       28.5910   -2.4100    2.1400 H       2  LIG2        0.0274
     38    H       27.8470   -0.9820    1.4320 H       2  LIG2        0.0274
     39    H       26.9810   -1.9630    2.6160 H       2  LIG2        0.0274
@<TRIPOS>BOND
     1    33    13    1
     2    38    15    1
     3    31    13    1
     4    32    13    1
     5    13     8    1
     6    24     7    1
     7    37    15    1
     8    15    39    1
     9    15     9    1
    10    36    14    1
    11    23     6    1
    12    27    11    1
    13     7     6    1
    14     7    11    1
    15     7    25    1
    16     8     6    1
    17     8    10    2
    18    14    34    1
    19    14     9    1
    20    14    35    1
    21     6    22    1
    22     9     2    2
    23    11     5    2
    24    20     4    1
    25    19     3    1
    26     2     4    1
    27     2     1    1
    28    10     4    1
    29    10    26    1
    30     4    21    1
    31     5     3    1
    32     5    12    1
    33     3     1    1
    34     3    18    1
    35     1    17    1
    36     1    16    1
    37    29    12    1
    38    12    30    1
    39    12    28    1
@<TRIPOS>MOLECULE
5281519_run_24.pdb
 39 39 0 0 0
SMALL
GASTEIGER

@<TRIPOS>ATOM
      1    C       29.5470    2.3510    4.0820 C.3     2  LIG2       -0.0275
      2    C       28.1330    2.9720    4.0370 C.2     2  LIG2       -0.0668
      3    C       29.7720    1.1580    5.0610 C.3     2  LIG2       -0.0283
      4    C       27.3180    2.6150    2.7750 C.3     2  LIG2       -0.0130
      5    C       29.1450   -0.1580    4.6120 C.2     2  LIG2       -0.0762
      6    C       26.3090   -1.1520    3.2280 C.3     2  LIG2       -0.0286
      7    C       27.0350   -1.6230    4.5250 C.3     2  LIG2       -0.0308
      8    C       26.1230    0.3650    3.1540 C.2     2  LIG2       -0.0759
      9    C       27.6690    3.7850    5.0290 C.2     2  LIG2       -0.0762
     10    C       27.1010    1.1240    2.6110 C.2     2  LIG2       -0.0810
     11    C       27.9610   -0.5630    5.1190 C.2     2  LIG2       -0.0847
     12    C       29.8830   -0.8790    3.4910 C.3     2  LIG2       -0.0438
     13    C       24.9330    0.9070    3.9330 C.3     2  LIG2       -0.0438
     14    C       28.4650    4.1390    6.2840 C.3     2  LIG2       -0.0438
     15    C       26.3070    4.4750    5.0230 C.3     2  LIG2       -0.0438
     16    H       29.8530    2.0730    3.0730 H       2  LIG2        0.0313
     17    H       30.2460    3.1450    4.3440 H       2  LIG2        0.0313
     18    H       30.8410    0.9900    5.1940 H       2  LIG2        0.0313
     19    H       29.3990    1.4180    6.0520 H       2  LIG2        0.0313
     20    H       26.3430    3.0910    2.7530 H       2  LIG2        0.0352
     21    H       27.8340    3.0010    1.8950 H       2  LIG2        0.0352
     22    H       26.9080   -1.4650    2.3710 H       2  LIG2        0.0313
     23    H       25.3510   -1.6600    3.1050 H       2  LIG2        0.0313
     24    H       26.2930   -1.8570    5.2900 H       2  LIG2        0.0310
     25    H       27.5770   -2.5540    4.3520 H       2  LIG2        0.0310
     26    H       27.9240    0.6220    2.1240 H       2  LIG2        0.0575
     27    H       27.5040    0.0380    5.8930 H       2  LIG2        0.0572
     28    H       30.0680   -0.2120    2.6480 H       2  LIG2        0.0274
     29    H       29.3360   -1.7400    3.1110 H       2  LIG2        0.0274
     30    H       30.8450   -1.2410    3.8550 H       2  LIG2        0.0274
     31    H       24.0070    0.6610    3.4120 H       2  LIG2        0.0274
     32    H       24.9620    1.9870    4.0580 H       2  LIG2        0.0274
     33    H       24.8940    0.4650    4.9290 H       2  LIG2        0.0274
     34    H       28.5990    5.2180    6.3550 H       2  LIG2        0.0274
     35    H       29.4590    3.6980    6.3270 H       2  LIG2        0.0274
     36    H       27.9290    3.8020    7.1700 H       2  LIG2        0.0274
     37    H       26.3710    5.4630    5.4820 H       2  LIG2        0.0274
     38    H       25.5940    3.8890    5.6040 H       2  LIG2        0.0274
     39    H       25.8890    4.6360    4.0320 H       2  LIG2        0.0274
@<TRIPOS>BOND
     1    21     4    1
     2    26    10    1
     3    22     6    1
     4    10     4    1
     5    10     8    2
     6    28    12    1
     7    20     4    1
     8     4     2    1
     9    16     1    1
    10    23     6    1
    11    29    12    1
    12     8     6    1
    13     8    13    1
    14     6     7    1
    15    31    13    1
    16    12    30    1
    17    12     5    1
    18    13    32    1
    19    13    33    1
    20    39    15    1
    21     2     1    1
    22     2     9    2
    23     1    17    1
    24     1     3    1
    25    25     7    1
    26     7    11    1
    27     7    24    1
    28     5     3    1
    29     5    11    2
    30    15     9    1
    31    15    37    1
    32    15    38    1
    33     9    14    1
    34     3    18    1
    35     3    19    1
    36    11    27    1
    37    14    35    1
    38    14    34    1
    39    14    36    1
@<TRIPOS>MOLECULE
5281519_run_10.pdb
 39 39 0 0 0
SMALL
GASTEIGER

@<TRIPOS>ATOM
      1    C       27.6930    3.4910    4.7530 C.3     2  LIG2       -0.0275
      2    C       26.3460    2.7360    4.7150 C.2     2  LIG2       -0.0668
      3    C       28.0020    4.4580    3.5690 C.3     2  LIG2       -0.0283
      4    C       25.2890    3.2640    5.7100 C.3     2  LIG2       -0.0130
      5    C       27.2070    5.7580    3.5880 C.2     2  LIG2       -0.0762
      6    C       24.0990    6.6980    4.2240 C.3     2  LIG2       -0.0286
      7    C       25.0130    6.9540    2.9860 C.3     2  LIG2       -0.0308
      8    C       24.0180    5.2230    4.6220 C.2     2  LIG2       -0.0759
      9    C       26.1340    1.6770    3.8820 C.2     2  LIG2       -0.0762
     10    C       24.9340    4.7190    5.4800 C.2     2  LIG2       -0.0810
     11    C       26.1080    5.9030    2.8160 C.2     2  LIG2       -0.0847
     12    C       27.6710    6.7890    4.6110 C.3     2  LIG2       -0.0438
     13    C       23.0340    4.3890    3.8130 C.3     2  LIG2       -0.0438
     14    C       27.1710    1.1510    2.8910 C.3     2  LIG2       -0.0438
     15    C       24.8490    0.8530    3.8310 C.3     2  LIG2       -0.0438
     16    H       27.7870    4.0170    5.7040 H       2  LIG2        0.0313
     17    H       28.4860    2.7440    4.8020 H       2  LIG2        0.0313
     18    H       29.0620    4.7150    3.5740 H       2  LIG2        0.0313
     19    H       27.8380    3.9460    2.6210 H       2  LIG2        0.0313
     20    H       24.3650    2.6950    5.6860 H       2  LIG2        0.0352
     21    H       25.6630    3.1430    6.7270 H       2  LIG2        0.0352
     22    H       24.5050    7.2580    5.0670 H       2  LIG2        0.0313
     23    H       23.0990    7.1070    4.0670 H       2  LIG2        0.0313
     24    H       24.4070    6.9270    2.0790 H       2  LIG2        0.0310
     25    H       25.4420    7.9560    3.0190 H       2  LIG2        0.0310
     26    H       25.6130    5.4080    5.9600 H       2  LIG2        0.0575
     27    H       25.8470    5.0980    2.1430 H       2  LIG2        0.0572
     28    H       27.7480    6.3480    5.6050 H       2  LIG2        0.0274
     29    H       27.0000    7.6430    4.6840 H       2  LIG2        0.0274
     30    H       28.6530    7.1700    4.3310 H       2  LIG2        0.0274
     31    H       22.0130    4.6350    4.1050 H       2  LIG2        0.0274
     32    H       23.1670    3.3190    3.9520 H       2  LIG2        0.0274
     33    H       23.1450    4.5950    2.7480 H       2  LIG2        0.0274
     34    H       27.3960    0.1050    3.0990 H       2  LIG2        0.0274
     35    H       28.1190    1.6830    2.9050 H       2  LIG2        0.0274
     36    H       26.7810    1.2200    1.8760 H       2  LIG2        0.0274
     37    H       25.0700   -0.1980    3.6360 H       2  LIG2        0.0274
     38    H       24.2130    1.2100    3.0220 H       2  LIG2        0.0274
     39    H       24.2710    0.8660    4.7520 H       2  LIG2        0.0274
@<TRIPOS>BOND
     1    36    14    1
     2    24     7    1
     3    27    11    1
     4    19     3    1
     5    33    13    1
     6    11     7    1
     7    11     5    2
     8    14    35    1
     9    14    34    1
    10    14     9    1
    11     7    25    1
    12     7     6    1
    13    38    15    1
    14     3    18    1
    15     3     5    1
    16     3     1    1
    17     5    12    1
    18    37    15    1
    19    13    32    1
    20    13    31    1
    21    13     8    1
    22    15     9    1
    23    15    39    1
    24     9     2    2
    25    23     6    1
    26     6     8    1
    27     6    22    1
    28    30    12    1
    29    12    29    1
    30    12    28    1
    31     8    10    2
    32     2     1    1
    33     2     4    1
    34     1    17    1
    35     1    16    1
    36    10     4    1
    37    10    26    1
    38    20     4    1
    39     4    21    1
@<TRIPOS>MOLECULE
5281519_run_13.pdb
 39 39 0 0 0
SMALL
GASTEIGER

@<TRIPOS>ATOM
      1    C       25.5960    1.6530    3.6310 C.3     2  LIG2       -0.0275
      2    C       27.0680    2.1130    3.5490 C.2     2  LIG2       -0.0668
      3    C       24.7320    2.2320    4.7930 C.3     2  LIG2       -0.0283
      4    C       27.3620    3.1170    2.4120 C.3     2  LIG2       -0.0130
      5    C       24.3270    3.6920    4.6170 C.2     2  LIG2       -0.0762
      6    C       25.7370    6.4970    3.5750 C.3     2  LIG2       -0.0286
      7    C       24.9810    6.1610    4.8970 C.3     2  LIG2       -0.0308
      8    C       26.8510    5.5010    3.2440 C.2     2  LIG2       -0.0759
      9    C       28.0220    1.6430    4.4030 C.2     2  LIG2       -0.0762
     10    C       26.5540    4.3940    2.5260 C.2     2  LIG2       -0.0810
     11    C       25.0060    4.6740    5.2470 C.2     2  LIG2       -0.0847
     12    C       23.2140    3.9390    3.6050 C.3     2  LIG2       -0.0438
     13    C       28.1660    5.7370    3.9730 C.3     2  LIG2       -0.0438
     14    C       27.7400    0.6540    5.5340 C.3     2  LIG2       -0.0438
     15    C       29.5020    2.0110    4.3440 C.3     2  LIG2       -0.0438
     16    H       25.1060    1.8310    2.6730 H       2  LIG2        0.0313
     17    H       25.5960    0.5670    3.7130 H       2  LIG2        0.0313
     18    H       23.8200    1.6440    4.9000 H       2  LIG2        0.0313
     19    H       25.2590    2.1140    5.7400 H       2  LIG2        0.0313
     20    H       28.4080    3.3970    2.3550 H       2  LIG2        0.0352
     21    H       27.1500    2.6430    1.4530 H       2  LIG2        0.0352
     22    H       25.0150    6.4860    2.7580 H       2  LIG2        0.0313
     23    H       26.1300    7.5150    3.5930 H       2  LIG2        0.0313
     24    H       25.4550    6.6870    5.7270 H       2  LIG2        0.0310
     25    H       23.9560    6.5320    4.8650 H       2  LIG2        0.0310
     26    H       25.5670    4.3170    2.0950 H       2  LIG2        0.0575
     27    H       25.8010    4.3930    5.9240 H       2  LIG2        0.0572
     28    H       23.4380    3.4630    2.6500 H       2  LIG2        0.0274
     29    H       23.0460    4.9970    3.4120 H       2  LIG2        0.0274
     30    H       22.2770    3.5250    3.9790 H       2  LIG2        0.0274
     31    H       28.6720    6.6060    3.5520 H       2  LIG2        0.0274
     32    H       28.8490    4.8940    3.9040 H       2  LIG2        0.0274
     33    H       27.9880    5.9240    5.0320 H       2  LIG2        0.0274
     34    H       28.3390   -0.2470    5.4060 H       2  LIG2        0.0274
     35    H       26.7040    0.3330    5.6040 H       2  LIG2        0.0274
     36    H       28.0000    1.1040    6.4920 H       2  LIG2        0.0274
     37    H       30.1250    1.1580    4.6160 H       2  LIG2        0.0274
     38    H       29.7120    2.8110    5.0540 H       2  LIG2        0.0274
     39    H       29.8470    2.3270    3.3620 H       2  LIG2        0.0274
@<TRIPOS>BOND
     1    21     4    1
     2    26    10    1
     3    20     4    1
     4     4    10    1
     5     4     2    1
     6    10     8    2
     7    28    12    1
     8    16     1    1
     9    22     6    1
    10     8     6    1
    11     8    13    1
    12    39    15    1
    13    29    12    1
    14     2     1    1
    15     2     9    2
    16    31    13    1
    17     6    23    1
    18     6     7    1
    19    12    30    1
    20    12     5    1
    21     1    17    1
    22     1     3    1
    23    32    13    1
    24    13    33    1
    25    15     9    1
    26    15    37    1
    27    15    38    1
    28     9    14    1
    29     5     3    1
    30     5    11    2
    31     3    18    1
    32     3    19    1
    33    25     7    1
    34     7    11    1
    35     7    24    1
    36    11    27    1
    37    34    14    1
    38    14    35    1
    39    14    36    1
@<TRIPOS>MOLECULE
5281519_run_6.pdb
 39 39 0 0 0
SMALL
GASTEIGER

@<TRIPOS>ATOM
      1    C       26.3490    2.4400    2.1650 C.3     2  LIG2       -0.0275
      2    C       26.8070    1.1340    2.8510 C.2     2  LIG2       -0.0668
      3    C       25.7470    3.5520    3.0780 C.3     2  LIG2       -0.0283
      4    C       28.3390    0.9750    2.9650 C.3     2  LIG2       -0.0130
      5    C       26.7690    4.2920    3.9350 C.2     2  LIG2       -0.0762
      6    C       29.4360    3.5290    5.7380 C.3     2  LIG2       -0.0286
      7    C       28.1450    4.3240    6.1050 C.3     2  LIG2       -0.0308
      8    C       29.1490    2.1690    5.0990 C.2     2  LIG2       -0.0759
      9    C       25.9170    0.1980    3.2910 C.2     2  LIG2       -0.0762
     10    C       28.9920    2.0890    3.7590 C.2     2  LIG2       -0.0810
     11    C       26.9440    3.9620    5.2330 C.2     2  LIG2       -0.0847
     12    C       27.6290    5.3050    3.1890 C.3     2  LIG2       -0.0438
     13    C       28.8250    1.0510    6.0810 C.3     2  LIG2       -0.0438
     14    C       24.4000    0.3480    3.1870 C.3     2  LIG2       -0.0438
     15    C       26.3000   -1.1370    3.9260 C.3     2  LIG2       -0.0438
     16    H       27.1690    2.8440    1.5700 H       2  LIG2        0.0313
     17    H       25.6050    2.1730    1.4150 H       2  LIG2        0.0313
     18    H       25.2300    4.2900    2.4630 H       2  LIG2        0.0313
     19    H       24.9760    3.1260    3.7200 H       2  LIG2        0.0313
     20    H       28.6330    0.0340    3.4190 H       2  LIG2        0.0352
     21    H       28.7710    0.9460    1.9640 H       2  LIG2        0.0352
     22    H       30.0110    4.1250    5.0280 H       2  LIG2        0.0313
     23    H       30.0880    3.4140    6.6050 H       2  LIG2        0.0313
     24    H       27.8640    4.1000    7.1350 H       2  LIG2        0.0310
     25    H       28.3290    5.3980    6.0810 H       2  LIG2        0.0310
     26    H       29.2080    2.9670    3.1680 H       2  LIG2        0.0575
     27    H       26.3000    3.2070    5.6600 H       2  LIG2        0.0572
     28    H       28.0890    4.8580    2.3070 H       2  LIG2        0.0274
     29    H       28.4300    5.7120    3.8040 H       2  LIG2        0.0274
     30    H       27.0120    6.1430    2.8620 H       2  LIG2        0.0274
     31    H       29.7330    0.7370    6.5970 H       2  LIG2        0.0274
     32    H       28.4000    0.1720    5.6010 H       2  LIG2        0.0274
     33    H       28.1080    1.3930    6.8270 H       2  LIG2        0.0274
     34    H       23.9780   -0.4710    2.6050 H       2  LIG2        0.0274
     35    H       24.0700    1.2700    2.7130 H       2  LIG2        0.0274
     36    H       23.9570    0.3250    4.1820 H       2  LIG2        0.0274
     37    H       25.5990   -1.9200    3.6340 H       2  LIG2        0.0274
     38    H       26.2650   -1.0520    5.0120 H       2  LIG2        0.0274
     39    H       27.2850   -1.5020    3.6440 H       2  LIG2        0.0274
@<TRIPOS>BOND
     1    17     1    1
     2    16     1    1
     3    21     4    1
     4     1     2    1
     5     1     3    1
     6    28    12    1
     7    18     3    1
     8    34    14    1
     9    35    14    1
    10     2     4    1
    11     2     9    2
    12    30    12    1
    13     4    20    1
    14     4    10    1
    15     3    19    1
    16     3     5    1
    17    26    10    1
    18    14     9    1
    19    14    36    1
    20    12    29    1
    21    12     5    1
    22     9    15    1
    23    37    15    1
    24    39    15    1
    25    10     8    2
    26    15    38    1
    27     5    11    2
    28    22     6    1
    29     8     6    1
    30     8    13    1
    31    11    27    1
    32    11     7    1
    33    32    13    1
    34     6     7    1
    35     6    23    1
    36    25     7    1
    37    13    31    1
    38    13    33    1
    39     7    24    1
@<TRIPOS>MOLECULE
5281519_run_18.pdb
 39 39 0 0 0
SMALL
GASTEIGER

@<TRIPOS>ATOM
      1    C       28.3030    2.2620    2.7650 C.3     2  LIG2       -0.0275
      2    C       28.3130    3.2420    3.9580 C.2     2  LIG2       -0.0668
      3    C       27.4300    0.9770    2.9040 C.3     2  LIG2       -0.0283
      4    C       27.5060    4.5390    3.7280 C.3     2  LIG2       -0.0130
      5    C       25.9280    1.2150    2.7960 C.2     2  LIG2       -0.0762
      6    C       23.7370    3.4480    3.8740 C.3     2  LIG2       -0.0286
      7    C       23.7590    1.8930    3.9970 C.3     2  LIG2       -0.0308
      8    C       25.0380    4.1100    4.3310 C.2     2  LIG2       -0.0759
      9    C       29.0030    2.9780    5.1050 C.2     2  LIG2       -0.0762
     10    C       26.0410    4.2810    3.4390 C.2     2  LIG2       -0.0810
     11    C       25.1640    1.3000    3.9070 C.2     2  LIG2       -0.0847
     12    C       25.4110    1.4690    1.3850 C.3     2  LIG2       -0.0438
     13    C       25.1710    4.3020    5.8350 C.3     2  LIG2       -0.0438
     14    C       29.8000    1.6970    5.3450 C.3     2  LIG2       -0.0438
     15    C       29.1010    3.9250    6.3000 C.3     2  LIG2       -0.0438
     16    H       28.0370    2.8010    1.8550 H       2  LIG2        0.0313
     17    H       29.3340    1.9580    2.5820 H       2  LIG2        0.0313
     18    H       27.7100    0.2580    2.1330 H       2  LIG2        0.0313
     19    H       27.6520    0.4810    3.8500 H       2  LIG2        0.0313
     20    H       27.5580    5.2240    4.5680 H       2  LIG2        0.0352
     21    H       27.9440    5.0890    2.8940 H       2  LIG2        0.0352
     22    H       23.5730    3.7030    2.8260 H       2  LIG2        0.0313
     23    H       22.8850    3.8730    4.4070 H       2  LIG2        0.0313
     24    H       23.3570    1.6020    4.9690 H       2  LIG2        0.0310
     25    H       23.0990    1.4350    3.2600 H       2  LIG2        0.0310
     26    H       25.8390    4.0660    2.4000 H       2  LIG2        0.0575
     27    H       25.6350    1.1320    4.8650 H       2  LIG2        0.0572
     28    H       25.9820    2.2560    0.8920 H       2  LIG2        0.0274
     29    H       24.3630    1.7640    1.3660 H       2  LIG2        0.0274
     30    H       25.5030    0.5600    0.7900 H       2  LIG2        0.0274
     31    H       24.5190    5.1110    6.1640 H       2  LIG2        0.0274
     32    H       26.1840    4.5500    6.1460 H       2  LIG2        0.0274
     33    H       24.8830    3.3930    6.3640 H       2  LIG2        0.0274
     34    H       30.8460    1.9330    5.5430 H       2  LIG2        0.0274
     35    H       29.7900    0.9980    4.5120 H       2  LIG2        0.0274
     36    H       29.4000    1.1690    6.2100 H       2  LIG2        0.0274
     37    H       30.0870    3.8620    6.7630 H       2  LIG2        0.0274
     38    H       28.3660    3.6450    7.0530 H       2  LIG2        0.0274
     39    H       28.9560    4.9750    6.0540 H       2  LIG2        0.0274
@<TRIPOS>BOND
     1    30    12    1
     2    28    12    1
     3    29    12    1
     4    12     5    1
     5    16     1    1
     6    18     3    1
     7    26    10    1
     8    17     1    1
     9     1     3    1
    10     1     2    1
    11     5     3    1
    12     5    11    2
    13    22     6    1
    14    21     4    1
    15     3    19    1
    16    25     7    1
    17    10     4    1
    18    10     8    2
    19     4     2    1
    20     4    20    1
    21     6     7    1
    22     6     8    1
    23     6    23    1
    24    11     7    1
    25    11    27    1
    26     2     9    2
    27     7    24    1
    28     8    13    1
    29    35    14    1
    30     9    14    1
    31     9    15    1
    32    14    34    1
    33    14    36    1
    34    13    32    1
    35    13    31    1
    36    13    33    1
    37    39    15    1
    38    15    37    1
    39    15    38    1
