@<TRIPOS>MOLECULE
11996452_1_run_9.pdb
 42 44 0 0 0
SMALL
GASTEIGER

@<TRIPOS>ATOM
      1    O       25.3830    4.3390    2.6080 O.3     2  LIG2       -0.3886
      2    C       27.6040    1.6480    2.8520 C.3     2  LIG2       -0.0289
      3    C       27.1800    0.2860    3.3810 C.3     2  LIG2       -0.0284
      4    C       26.2350    1.0420    2.4710 C.3     2  LIG2       -0.0319
      5    C       27.9010    2.9650    3.6550 C.3     2  LIG2       -0.0294
      6    C       26.8540    3.7870    4.4520 C.3     2  LIG2       -0.0090
      7    C       24.8280    1.5160    2.9070 C.3     2  LIG2       -0.0468
      8    C       29.0970    2.8950    4.6410 C.3     2  LIG2       -0.0404
      9    C       25.3870    3.8730    3.9490 C.3     2  LIG2        0.0664
     10    C       27.0870    3.4710    5.9460 C.3     2  LIG2       -0.0471
     11    C       24.6060    2.5440    4.0270 C.3     2  LIG2       -0.0237
     12    C       27.8750   -0.9430    2.7610 C.3     2  LIG2       -0.0593
     13    C       26.8420    0.0410    4.8610 C.3     2  LIG2       -0.0593
     14    C       28.4790    2.8280    6.0470 C.3     2  LIG2       -0.0498
     15    C       30.1570    1.8100    4.3670 C.3     2  LIG2       -0.0621
     16    C       24.6080    4.9600    4.7300 C.3     2  LIG2       -0.0358
     17    H       28.3520    1.5920    2.0590 H       2  LIG2        0.0312
     18    H       26.1920    0.7530    1.4190 H       2  LIG2        0.0309
     19    H       28.2100    3.6380    2.8520 H       2  LIG2        0.0310
     20    H       27.2130    4.8170    4.3630 H       2  LIG2        0.0331
     21    H       24.3290    1.8930    2.0110 H       2  LIG2        0.0269
     22    H       24.2570    0.6230    3.1610 H       2  LIG2        0.0269
     23    H       29.6270    3.8480    4.5750 H       2  LIG2        0.0301
     24    H       27.0640    4.3930    6.5290 H       2  LIG2        0.0269
     25    H       26.3190    2.8330    6.3780 H       2  LIG2        0.0269
     26    H       23.5380    2.7690    4.0080 H       2  LIG2        0.0293
     27    H       24.7240    2.0850    5.0050 H       2  LIG2        0.0293
     28    H       27.2450   -1.8290    2.8390 H       2  LIG2        0.0235
     29    H       28.8170   -1.1580    3.2650 H       2  LIG2        0.0235
     30    H       28.1000   -0.8010    1.7030 H       2  LIG2        0.0235
     31    H       26.1220   -0.7720    4.9630 H       2  LIG2        0.0235
     32    H       26.4180    0.9020    5.3550 H       2  LIG2        0.0235
     33    H       27.7320   -0.2410    5.4230 H       2  LIG2        0.0235
     34    H       28.4080    1.8010    6.4050 H       2  LIG2        0.0268
     35    H       29.0990    3.3630    6.7680 H       2  LIG2        0.0268
     36    H       29.7560    0.8050    4.4880 H       2  LIG2        0.0233
     37    H       30.9970    1.9050    5.0560 H       2  LIG2        0.0233
     38    H       30.5550    1.8930    3.3550 H       2  LIG2        0.0233
     39    H       24.5000    4.6930    5.7830 H       2  LIG2        0.0257
     40    H       23.6010    5.1090    4.3340 H       2  LIG2        0.0257
     41    H       25.1120    5.9280    4.6910 H       2  LIG2        0.0257
     42    H       25.9420    3.7610    2.0840 H       2  LIG2        0.2102
@<TRIPOS>BOND
     1    18     4    1
     2    30    12    1
     3    21     7    1
     4    17     2    1
     5    42     1    1
     6     4     2    1
     7     4     7    1
     8     4     3    1
     9     1     9    1
    10    12    28    1
    11    12    29    1
    12    12     3    1
    13     2     3    1
    14     2     5    1
    15    19     5    1
    16     7    22    1
    17     7    11    1
    18    38    15    1
    19     3    13    1
    20     5     6    1
    21     5     8    1
    22     9    11    1
    23     9     6    1
    24     9    16    1
    25    26    11    1
    26    11    27    1
    27    40    16    1
    28    20     6    1
    29    15    36    1
    30    15     8    1
    31    15    37    1
    32     6    10    1
    33    23     8    1
    34     8    14    1
    35    41    16    1
    36    16    39    1
    37    13    31    1
    38    13    32    1
    39    13    33    1
    40    10    14    1
    41    10    25    1
    42    10    24    1
    43    14    34    1
    44    14    35    1
@<TRIPOS>MOLECULE
11996452_1_run_17.pdb
 42 44 0 0 0
SMALL
GASTEIGER

@<TRIPOS>ATOM
      1    O       25.8980   -0.8360    5.2880 O.3     2  LIG2       -0.3886
      2    C       26.4700    2.6140    5.2090 C.3     2  LIG2       -0.0289
      3    C       26.0670    3.4810    4.0260 C.3     2  LIG2       -0.0284
      4    C       25.1270    2.3850    4.4810 C.3     2  LIG2       -0.0319
      5    C       27.6920    1.6350    5.3400 C.3     2  LIG2       -0.0294
      6    C       27.8850    0.3260    4.5300 C.3     2  LIG2       -0.0090
      7    C       24.7190    1.1880    3.5890 C.3     2  LIG2       -0.0468
      8    C       29.0930    2.2960    5.2550 C.3     2  LIG2       -0.0404
      9    C       26.6520   -0.5260    4.1240 C.3     2  LIG2        0.0664
     10    C       28.9420    0.6290    3.4460 C.3     2  LIG2       -0.0471
     11    C       25.7280    0.1440    3.0840 C.3     2  LIG2       -0.0237
     12    C       25.6260    4.9230    4.3450 C.3     2  LIG2       -0.0593
     13    C       26.7820    3.4100    2.6670 C.3     2  LIG2       -0.0593
     14    C       29.6470    1.9260    3.8690 C.3     2  LIG2       -0.0498
     15    C       29.1710    3.8000    5.5830 C.3     2  LIG2       -0.0621
     16    C       27.0990   -1.9060    3.5830 C.3     2  LIG2       -0.0358
     17    H       26.3740    3.1200    6.1720 H       2  LIG2        0.0312
     18    H       24.2720    2.6640    5.0980 H       2  LIG2        0.0309
     19    H       27.5810    1.2940    6.3720 H       2  LIG2        0.0310
     20    H       28.4270   -0.3270    5.2210 H       2  LIG2        0.0331
     21    H       23.9300    0.6520    4.1200 H       2  LIG2        0.0269
     22    H       24.2080    1.5990    2.7190 H       2  LIG2        0.0269
     23    H       29.7300    1.7990    5.9900 H       2  LIG2        0.0301
     24    H       29.6670   -0.1850    3.3950 H       2  LIG2        0.0269
     25    H       28.5230    0.7100    2.4440 H       2  LIG2        0.0269
     26    H       25.1270   -0.6320    2.6050 H       2  LIG2        0.0293
     27    H       26.3050    0.5320    2.2500 H       2  LIG2        0.0293
     28    H       24.9590    5.3080    3.5730 H       2  LIG2        0.0235
     29    H       26.4840    5.5920    4.4080 H       2  LIG2        0.0235
     30    H       25.0920    4.9920    5.2930 H       2  LIG2        0.0235
     31    H       26.1030    3.6820    1.8580 H       2  LIG2        0.0235
     32    H       27.1730    2.4310    2.4350 H       2  LIG2        0.0235
     33    H       27.6230    4.1030    2.6310 H       2  LIG2        0.0235
     34    H       29.4720    2.7190    3.1420 H       2  LIG2        0.0268
     35    H       30.7280    1.7810    3.9110 H       2  LIG2        0.0268
     36    H       28.6330    4.4070    4.8570 H       2  LIG2        0.0233
     37    H       30.2060    4.1430    5.5870 H       2  LIG2        0.0233
     38    H       28.7560    4.0100    6.5690 H       2  LIG2        0.0233
     39    H       27.6570   -1.8070    2.6510 H       2  LIG2        0.0257
     40    H       26.2500   -2.5630    3.3790 H       2  LIG2        0.0257
     41    H       27.7430   -2.4300    4.2920 H       2  LIG2        0.0257
     42    H       25.6490   -0.0140    5.7150 H       2  LIG2        0.2102
@<TRIPOS>BOND
     1    31    13    1
     2    27    11    1
     3    32    13    1
     4    25    10    1
     5    26    11    1
     6    33    13    1
     7    39    16    1
     8    13     3    1
     9    22     7    1
    10    11     7    1
    11    11     9    1
    12    34    14    1
    13    40    16    1
    14    24    10    1
    15    10    14    1
    16    10     6    1
    17    28    12    1
    18    16     9    1
    19    16    41    1
    20     7    21    1
    21     7     4    1
    22    14    35    1
    23    14     8    1
    24     3    12    1
    25     3     4    1
    26     3     2    1
    27     9     6    1
    28     9     1    1
    29    12    29    1
    30    12    30    1
    31     4    18    1
    32     4     2    1
    33     6    20    1
    34     6     5    1
    35    36    15    1
    36     2     5    1
    37     2    17    1
    38     8     5    1
    39     8    15    1
    40     8    23    1
    41     1    42    1
    42     5    19    1
    43    15    37    1
    44    15    38    1
@<TRIPOS>MOLECULE
11996452_1_run_5.pdb
 42 44 0 0 0
SMALL
GASTEIGER

@<TRIPOS>ATOM
      1    O       26.1030    4.6490    5.7270 O.3     2  LIG2       -0.3886
      2    C       27.5830    1.5020    5.3540 C.3     2  LIG2       -0.0289
      3    C       28.9980    1.3240    4.8240 C.3     2  LIG2       -0.0284
      4    C       28.7160    2.4610    5.7820 C.3     2  LIG2       -0.0319
      5    C       26.2690    1.8330    4.5580 C.3     2  LIG2       -0.0294
      6    C       25.9800    3.1640    3.8160 C.3     2  LIG2       -0.0090
      7    C       28.8930    3.9530    5.4100 C.3     2  LIG2       -0.0468
      8    C       25.8250    0.7660    3.5240 C.3     2  LIG2       -0.0404
      9    C       26.5280    4.5040    4.3800 C.3     2  LIG2        0.0664
     10    C       26.1720    2.8820    2.3100 C.3     2  LIG2       -0.0471
     11    C       28.0650    4.6420    4.3150 C.3     2  LIG2       -0.0237
     12    C       29.8070    0.1430    5.3980 C.3     2  LIG2       -0.0593
     13    C       29.3710    1.5870    3.3560 C.3     2  LIG2       -0.0593
     14    C       26.1570    1.3550    2.1430 C.3     2  LIG2       -0.0498
     15    C       26.3490   -0.6680    3.7390 C.3     2  LIG2       -0.0621
     16    C       25.8840    5.7060    3.6460 C.3     2  LIG2       -0.0358
     17    H       27.3080    0.7690    6.1150 H       2  LIG2        0.0312
     18    H       28.9900    2.3310    6.8300 H       2  LIG2        0.0309
     19    H       25.5250    1.8080    5.3570 H       2  LIG2        0.0310
     20    H       24.8950    3.2780    3.9050 H       2  LIG2        0.0331
     21    H       28.7620    4.5260    6.3300 H       2  LIG2        0.0269
     22    H       29.9450    4.0970    5.1670 H       2  LIG2        0.0269
     23    H       24.7360    0.6940    3.5810 H       2  LIG2        0.0301
     24    H       25.3510    3.3230    1.7410 H       2  LIG2        0.0269
     25    H       27.0790    3.3200    1.9000 H       2  LIG2        0.0269
     26    H       28.3190    5.7020    4.3810 H       2  LIG2        0.0293
     27    H       28.4330    4.3810    3.3260 H       2  LIG2        0.0293
     28    H       30.8780    0.3350    5.3330 H       2  LIG2        0.0235
     29    H       29.5990   -0.7770    4.8520 H       2  LIG2        0.0235
     30    H       29.5770   -0.0440    6.4470 H       2  LIG2        0.0235
     31    H       30.4140    1.8930    3.2710 H       2  LIG2        0.0235
     32    H       28.7770    2.3600    2.8910 H       2  LIG2        0.0235
     33    H       29.2460    0.6870    2.7540 H       2  LIG2        0.0235
     34    H       27.1160    0.9950    1.7730 H       2  LIG2        0.0268
     35    H       25.4110    1.0560    1.4060 H       2  LIG2        0.0268
     36    H       27.4290   -0.7320    3.6210 H       2  LIG2        0.0233
     37    H       25.9050   -1.3560    3.0180 H       2  LIG2        0.0233
     38    H       26.0980   -1.0340    4.7350 H       2  LIG2        0.0233
     39    H       26.1760    5.7340    2.5950 H       2  LIG2        0.0257
     40    H       26.1800    6.6620    4.0850 H       2  LIG2        0.0257
     41    H       24.7940    5.6650    3.6790 H       2  LIG2        0.0257
     42    H       26.5100    5.4380    6.0900 H       2  LIG2        0.2102
@<TRIPOS>BOND
     1    35    14    1
     2    24    10    1
     3    34    14    1
     4    25    10    1
     5    14    10    1
     6    14     8    1
     7    10     6    1
     8    39    16    1
     9    33    13    1
    10    32    13    1
    11    37    15    1
    12    31    13    1
    13    27    11    1
    14    13     3    1
    15     8    23    1
    16     8    15    1
    17     8     5    1
    18    36    15    1
    19    16    41    1
    20    16    40    1
    21    16     9    1
    22    15    38    1
    23     6    20    1
    24     6     9    1
    25     6     5    1
    26    11     9    1
    27    11    26    1
    28    11     7    1
    29     9     1    1
    30     5     2    1
    31     5    19    1
    32     3     2    1
    33     3    12    1
    34     3     4    1
    35    29    12    1
    36    22     7    1
    37    28    12    1
    38     2     4    1
    39     2    17    1
    40    12    30    1
    41     7     4    1
    42     7    21    1
    43     1    42    1
    44     4    18    1
@<TRIPOS>MOLECULE
11996452_1_run_6.pdb
 42 44 0 0 0
SMALL
GASTEIGER

@<TRIPOS>ATOM
      1    O       30.3380    1.9710    4.1050 O.3     2  LIG2       -0.3886
      2    C       27.2650    3.3510    3.1620 C.3     2  LIG2       -0.0289
      3    C       26.3090    3.9760    4.1660 C.3     2  LIG2       -0.0284
      4    C       27.7940    4.2300    4.3170 C.3     2  LIG2       -0.0319
      5    C       27.5430    1.8300    2.8840 C.3     2  LIG2       -0.0294
      6    C       28.2060    0.8420    3.8780 C.3     2  LIG2       -0.0090
      7    C       28.6130    3.7870    5.5530 C.3     2  LIG2       -0.0468
      8    C       26.3350    1.0140    2.3510 C.3     2  LIG2       -0.0404
      9    C       29.3070    1.3410    4.8530 C.3     2  LIG2        0.0664
     10    C       27.0720   -0.0320    4.4570 C.3     2  LIG2       -0.0471
     11    C       28.8030    2.3120    5.9410 C.3     2  LIG2       -0.0237
     12    C       25.4680    5.1700    3.6690 C.3     2  LIG2       -0.0593
     13    C       25.5300    3.1430    5.1970 C.3     2  LIG2       -0.0593
     14    C       25.8600    0.1490    3.5300 C.3     2  LIG2       -0.0498
     15    C       25.2090    1.8120    1.6630 C.3     2  LIG2       -0.0621
     16    C       30.0120    0.1430    5.5360 C.3     2  LIG2       -0.0358
     17    H       27.2610    3.8480    2.1900 H       2  LIG2        0.0312
     18    H       28.1930    5.1810    3.9600 H       2  LIG2        0.0309
     19    H       28.2540    1.8910    2.0570 H       2  LIG2        0.0310
     20    H       28.7420    0.1430    3.2280 H       2  LIG2        0.0331
     21    H       29.6060    4.2300    5.4500 H       2  LIG2        0.0269
     22    H       28.1910    4.3030    6.4160 H       2  LIG2        0.0269
     23    H       26.7180    0.3290    1.5910 H       2  LIG2        0.0301
     24    H       27.3760   -1.0800    4.4660 H       2  LIG2        0.0269
     25    H       26.8240    0.2080    5.4890 H       2  LIG2        0.0269
     26    H       29.5250    2.3190    6.7600 H       2  LIG2        0.0293
     27    H       27.9130    1.9200    6.4250 H       2  LIG2        0.0293
     28    H       25.1760    5.8140    4.4990 H       2  LIG2        0.0235
     29    H       24.5590    4.8300    3.1740 H       2  LIG2        0.0235
     30    H       26.0120    5.7900    2.9570 H       2  LIG2        0.0235
     31    H       25.3200    3.7320    6.0910 H       2  LIG2        0.0235
     32    H       26.0530    2.2550    5.5190 H       2  LIG2        0.0235
     33    H       24.5730    2.8160    4.7910 H       2  LIG2        0.0235
     34    H       25.0300    0.6140    4.0600 H       2  LIG2        0.0268
     35    H       25.4970   -0.8180    3.1780 H       2  LIG2        0.0268
     36    H       24.6960    2.4770    2.3550 H       2  LIG2        0.0233
     37    H       24.4590    1.1420    1.2430 H       2  LIG2        0.0233
     38    H       25.5990    2.4170    0.8440 H       2  LIG2        0.0233
     39    H       29.3270   -0.4040    6.1850 H       2  LIG2        0.0257
     40    H       30.8540    0.4600    6.1550 H       2  LIG2        0.0257
     41    H       30.4040   -0.5680    4.8060 H       2  LIG2        0.0257
     42    H       30.8220    1.2950    3.6260 H       2  LIG2        0.2102
@<TRIPOS>BOND
     1    38    15    1
     2    37    15    1
     3    23     8    1
     4    15     8    1
     5    15    36    1
     6    19     5    1
     7    17     2    1
     8     8     5    1
     9     8    14    1
    10     5     2    1
    11     5     6    1
    12    30    12    1
    13     2     3    1
    14     2     4    1
    15    29    12    1
    16    35    14    1
    17    20     6    1
    18    14    34    1
    19    14    10    1
    20    42     1    1
    21    12     3    1
    22    12    28    1
    23     6    10    1
    24     6     9    1
    25    18     4    1
    26     1     9    1
    27     3     4    1
    28     3    13    1
    29     4     7    1
    30    10    24    1
    31    10    25    1
    32    33    13    1
    33    41    16    1
    34     9    16    1
    35     9    11    1
    36    13    32    1
    37    13    31    1
    38    21     7    1
    39    16    40    1
    40    16    39    1
    41     7    11    1
    42     7    22    1
    43    11    27    1
    44    11    26    1
@<TRIPOS>MOLECULE
11996452_1_run_4.pdb
 42 44 0 0 0
SMALL
GASTEIGER

@<TRIPOS>ATOM
      1    O       29.5030    0.2600    2.3140 O.3     2  LIG2       -0.3886
      2    C       27.8200    3.0690    3.5440 C.3     2  LIG2       -0.0289
      3    C       27.8250    3.4420    5.0190 C.3     2  LIG2       -0.0284
      4    C       29.1060    2.9340    4.3910 C.3     2  LIG2       -0.0319
      5    C       27.0030    1.9400    2.8180 C.3     2  LIG2       -0.0294
      6    C       27.1930    0.4160    3.0320 C.3     2  LIG2       -0.0090
      7    C       29.8180    1.6360    4.8390 C.3     2  LIG2       -0.0468
      8    C       25.4600    2.0980    2.8580 C.3     2  LIG2       -0.0404
      9    C       28.6050   -0.1570    3.3330 C.3     2  LIG2        0.0664
     10    C       26.0190   -0.0570    3.9150 C.3     2  LIG2       -0.0471
     11    C       29.1770    0.2460    4.7100 C.3     2  LIG2       -0.0237
     12    C       27.7890    4.9470    5.3510 C.3     2  LIG2       -0.0593
     13    C       27.0750    2.6240    6.0830 C.3     2  LIG2       -0.0593
     14    C       24.9580    1.0530    3.8680 C.3     2  LIG2       -0.0498
     15    C       24.9150    3.5190    3.1000 C.3     2  LIG2       -0.0621
     16    C       28.5990   -1.7020    3.2240 C.3     2  LIG2       -0.0358
     17    H       27.8150    3.9340    2.8780 H       2  LIG2        0.0312
     18    H       29.8640    3.6640    4.1050 H       2  LIG2        0.0309
     19    H       27.2970    2.1010    1.7780 H       2  LIG2        0.0310
     20    H       26.9500   -0.0130    2.0540 H       2  LIG2        0.0331
     21    H       30.7780    1.6050    4.3190 H       2  LIG2        0.0269
     22    H       30.0990    1.7720    5.8840 H       2  LIG2        0.0269
     23    H       25.0800    1.7980    1.8800 H       2  LIG2        0.0301
     24    H       25.6010   -0.9830    3.5150 H       2  LIG2        0.0269
     25    H       26.3110   -0.2880    4.9370 H       2  LIG2        0.0269
     26    H       29.9620   -0.4630    4.9790 H       2  LIG2        0.0293
     27    H       28.4430    0.0810    5.4940 H       2  LIG2        0.0293
     28    H       28.2320    5.1430    6.3280 H       2  LIG2        0.0235
     29    H       26.7650    5.3210    5.3690 H       2  LIG2        0.0235
     30    H       28.3390    5.5450    4.6240 H       2  LIG2        0.0235
     31    H       27.5650    2.7100    7.0540 H       2  LIG2        0.0235
     32    H       27.0130    1.5710    5.8530 H       2  LIG2        0.0235
     33    H       26.0530    2.9820    6.2010 H       2  LIG2        0.0235
     34    H       24.8070    1.4890    4.8550 H       2  LIG2        0.0268
     35    H       23.9920    0.6500    3.5590 H       2  LIG2        0.0268
     36    H       25.1670    3.8920    4.0910 H       2  LIG2        0.0233
     37    H       23.8280    3.5380    3.0160 H       2  LIG2        0.0233
     38    H       25.3100    4.2230    2.3670 H       2  LIG2        0.0233
     39    H       27.9720   -2.1530    3.9950 H       2  LIG2        0.0257
     40    H       29.5990   -2.1260    3.3380 H       2  LIG2        0.0257
     41    H       28.2190   -2.0390    2.2580 H       2  LIG2        0.0257
     42    H       30.3960    0.0420    2.5890 H       2  LIG2        0.2102
@<TRIPOS>BOND
     1    19     5    1
     2    23     8    1
     3    20     6    1
     4    41    16    1
     5     1    42    1
     6     1     9    1
     7    38    15    1
     8     5     8    1
     9     5     6    1
    10     5     2    1
    11     8    15    1
    12     8    14    1
    13    17     2    1
    14    37    15    1
    15     6     9    1
    16     6    10    1
    17    15    36    1
    18    16     9    1
    19    16    40    1
    20    16    39    1
    21     9    11    1
    22    24    10    1
    23     2     4    1
    24     2     3    1
    25    35    14    1
    26    14    10    1
    27    14    34    1
    28    10    25    1
    29    18     4    1
    30    21     7    1
    31     4     7    1
    32     4     3    1
    33    30    12    1
    34    11     7    1
    35    11    26    1
    36    11    27    1
    37     7    22    1
    38     3    12    1
    39     3    13    1
    40    12    29    1
    41    12    28    1
    42    32    13    1
    43    13    33    1
    44    13    31    1
@<TRIPOS>MOLECULE
11996452_1_run_4.pdb
 42 44 0 0 0
SMALL
GASTEIGER

@<TRIPOS>ATOM
      1    O       24.2750    1.5960    5.1050 O.3     2  LIG2       -0.3886
      2    C       26.5820    4.2230    5.1990 C.3     2  LIG2       -0.0289
      3    C       26.6520    5.2870    4.1140 C.3     2  LIG2       -0.0284
      4    C       25.2930    4.8060    4.5770 C.3     2  LIG2       -0.0319
      5    C       27.1040    2.7420    5.1600 C.3     2  LIG2       -0.0294
      6    C       26.5430    1.6160    4.2540 C.3     2  LIG2       -0.0090
      7    C       24.2780    4.0960    3.6500 C.3     2  LIG2       -0.0468
      8    C       28.6380    2.5770    4.9960 C.3     2  LIG2       -0.0404
      9    C       25.0300    1.5810    3.9030 C.3     2  LIG2        0.0664
     10    C       27.5550    1.4280    3.1030 C.3     2  LIG2       -0.0471
     11    C       24.5600    2.7360    2.9930 C.3     2  LIG2       -0.0237
     12    C       27.0540    6.7060    4.5620 C.3     2  LIG2       -0.0593
     13    C       27.1660    4.9900    2.6960 C.3     2  LIG2       -0.0593
     14    C       28.8570    2.1130    3.5460 C.3     2  LIG2       -0.0498
     15    C       29.5140    3.7750    5.4120 C.3     2  LIG2       -0.0621
     16    C       24.6580    0.2330    3.2370 C.3     2  LIG2       -0.0358
     17    H       26.8070    4.6060    6.1970 H       2  LIG2        0.0312
     18    H       24.7410    5.4280    5.2840 H       2  LIG2        0.0309
     19    H       26.8710    2.4080    6.1740 H       2  LIG2        0.0310
     20    H       26.6840    0.7100    4.8520 H       2  LIG2        0.0331
     21    H       23.3470    4.0030    4.2120 H       2  LIG2        0.0269
     22    H       24.0280    4.8000    2.8550 H       2  LIG2        0.0269
     23    H       28.9450    1.7490    5.6400 H       2  LIG2        0.0301
     24    H       27.7370    0.3640    2.9370 H       2  LIG2        0.0269
     25    H       27.2040    1.8160    2.1500 H       2  LIG2        0.0269
     26    H       23.6210    2.4430    2.5190 H       2  LIG2        0.0293
     27    H       25.2220    2.8470    2.1380 H       2  LIG2        0.0293
     28    H       26.6610    7.4590    3.8770 H       2  LIG2        0.0235
     29    H       28.1370    6.8170    4.5930 H       2  LIG2        0.0235
     30    H       26.6760    6.9490    5.5560 H       2  LIG2        0.0235
     31    H       26.7020    5.6570    1.9690 H       2  LIG2        0.0235
     32    H       26.9700    3.9800    2.3680 H       2  LIG2        0.0235
     33    H       28.2440    5.1390    2.6320 H       2  LIG2        0.0235
     34    H       29.0990    2.9490    2.8900 H       2  LIG2        0.0268
     35    H       29.6980    1.4200    3.4850 H       2  LIG2        0.0268
     36    H       29.3500    4.6430    4.7760 H       2  LIG2        0.0233
     37    H       30.5730    3.5230    5.3480 H       2  LIG2        0.0233
     38    H       29.3120    4.0710    6.4420 H       2  LIG2        0.0233
     39    H       25.1460    0.1190    2.2680 H       2  LIG2        0.0257
     40    H       23.5830    0.1430    3.0660 H       2  LIG2        0.0257
     41    H       24.9550   -0.6180    3.8520 H       2  LIG2        0.0257
     42    H       24.6870    0.9960    5.7300 H       2  LIG2        0.2102
@<TRIPOS>BOND
     1    31    13    1
     2    27    11    1
     3    25    10    1
     4    39    16    1
     5    32    13    1
     6    26    11    1
     7    33    13    1
     8    13     3    1
     9    22     7    1
    10    34    14    1
    11    24    10    1
    12    11     7    1
    13    11     9    1
    14    40    16    1
    15    10    14    1
    16    10     6    1
    17    16    41    1
    18    16     9    1
    19    35    14    1
    20    14     8    1
    21     7    21    1
    22     7     4    1
    23    28    12    1
    24     9     6    1
    25     9     1    1
    26     3    12    1
    27     3     4    1
    28     3     2    1
    29     6    20    1
    30     6     5    1
    31    12    29    1
    32    12    30    1
    33     4     2    1
    34     4    18    1
    35    36    15    1
    36     8     5    1
    37     8    15    1
    38     8    23    1
    39     1    42    1
    40     5     2    1
    41     5    19    1
    42     2    17    1
    43    37    15    1
    44    15    38    1
@<TRIPOS>MOLECULE
11996452_1_run_8.pdb
 42 44 0 0 0
SMALL
GASTEIGER

@<TRIPOS>ATOM
      1    O       27.5850   -0.3240    5.6510 O.3     2  LIG2       -0.3886
      2    C       25.5830    2.4350    4.8680 C.3     2  LIG2       -0.0289
      3    C       25.0040    2.6550    3.4780 C.3     2  LIG2       -0.0284
      4    C       25.0230    1.2520    4.0470 C.3     2  LIG2       -0.0319
      5    C       27.0540    2.6690    5.3690 C.3     2  LIG2       -0.0294
      6    C       28.2980    1.8680    4.9060 C.3     2  LIG2       -0.0090
      7    C       25.8070    0.0820    3.4060 C.3     2  LIG2       -0.0468
      8    C       27.5560    4.1360    5.3120 C.3     2  LIG2       -0.0404
      9    C       28.1660    0.3610    4.5520 C.3     2  LIG2        0.0664
     10    C       29.0690    2.7750    3.9220 C.3     2  LIG2       -0.0471
     11    C       27.3380    0.0760    3.2800 C.3     2  LIG2       -0.0237
     12    C       23.6220    3.3340    3.4050 C.3     2  LIG2       -0.0593
     13    C       25.8740    3.0410    2.2710 C.3     2  LIG2       -0.0593
     14    C       28.5330    4.2010    4.1260 C.3     2  LIG2       -0.0498
     15    C       26.4780    5.2380    5.3000 C.3     2  LIG2       -0.0621
     16    C       29.5640   -0.2860    4.3970 C.3     2  LIG2       -0.0358
     17    H       24.9250    2.7710    5.6710 H       2  LIG2        0.0312
     18    H       24.1000    0.8570    4.4740 H       2  LIG2        0.0309
     19    H       26.9590    2.4230    6.4290 H       2  LIG2        0.0310
     20    H       28.9450    1.8640    5.7890 H       2  LIG2        0.0331
     21    H       25.5170   -0.8240    3.9410 H       2  LIG2        0.0269
     22    H       25.3940   -0.0670    2.4080 H       2  LIG2        0.0269
     23    H       28.1460    4.3110    6.2150 H       2  LIG2        0.0301
     24    H       30.1360    2.7480    4.1480 H       2  LIG2        0.0269
     25    H       28.9820    2.4610    2.8840 H       2  LIG2        0.0269
     26    H       27.5950   -0.9220    2.9170 H       2  LIG2        0.0293
     27    H       27.6640    0.7080    2.4580 H       2  LIG2        0.0293
     28    H       23.0990    3.0590    2.4890 H       2  LIG2        0.0235
     29    H       23.7160    4.4200    3.4230 H       2  LIG2        0.0235
     30    H       22.9780    3.0530    4.2390 H       2  LIG2        0.0235
     31    H       25.4300    2.6780    1.3430 H       2  LIG2        0.0235
     32    H       26.8770    2.6450    2.3170 H       2  LIG2        0.0235
     33    H       25.9650    4.1240    2.1860 H       2  LIG2        0.0235
     34    H       28.0430    4.5650    3.2230 H       2  LIG2        0.0268
     35    H       29.3490    4.8930    4.3350 H       2  LIG2        0.0268
     36    H       25.8750    5.2110    4.3940 H       2  LIG2        0.0233
     37    H       26.9330    6.2270    5.3550 H       2  LIG2        0.0233
     38    H       25.8050    5.1410    6.1530 H       2  LIG2        0.0233
     39    H       30.1030    0.1290    3.5430 H       2  LIG2        0.0257
     40    H       29.5030   -1.3650    4.2410 H       2  LIG2        0.0257
     41    H       30.1850   -0.1260    5.2800 H       2  LIG2        0.0257
     42    H       26.7430    0.0880    5.8550 H       2  LIG2        0.2102
@<TRIPOS>BOND
     1    31    13    1
     2    33    13    1
     3    13    32    1
     4    13     3    1
     5    22     7    1
     6    27    11    1
     7    28    12    1
     8    25    10    1
     9    26    11    1
    10    34    14    1
    11    11     7    1
    12    11     9    1
    13    12    29    1
    14    12     3    1
    15    12    30    1
    16     7    21    1
    17     7     4    1
    18     3     4    1
    19     3     2    1
    20    39    16    1
    21    10    14    1
    22    10    24    1
    23    10     6    1
    24     4    18    1
    25     4     2    1
    26    14    35    1
    27    14     8    1
    28    40    16    1
    29    36    15    1
    30    16     9    1
    31    16    41    1
    32     9     6    1
    33     9     1    1
    34     2     5    1
    35     2    17    1
    36     6     5    1
    37     6    20    1
    38    15     8    1
    39    15    37    1
    40    15    38    1
    41     8     5    1
    42     8    23    1
    43     5    19    1
    44     1    42    1
@<TRIPOS>MOLECULE
11996452_1_run_9.pdb
 42 44 0 0 0
SMALL
GASTEIGER

@<TRIPOS>ATOM
      1    O       27.3980    3.1670    6.7110 O.3     2  LIG2       -0.3886
      2    C       26.6380    0.4260    4.6740 C.3     2  LIG2       -0.0289
      3    C       27.7080   -0.3590    3.9300 C.3     2  LIG2       -0.0284
      4    C       27.9910    0.1000    5.3450 C.3     2  LIG2       -0.0319
      5    C       26.0310    1.8340    4.3270 C.3     2  LIG2       -0.0294
      6    C       26.8040    3.1780    4.3620 C.3     2  LIG2       -0.0090
      7    C       29.1320    1.0780    5.7110 C.3     2  LIG2       -0.0468
      8    C       25.2620    1.9200    2.9830 C.3     2  LIG2       -0.0404
      9    C       27.9240    3.4040    5.4140 C.3     2  LIG2        0.0664
     10    C       27.1060    3.5520    2.8940 C.3     2  LIG2       -0.0471
     11    C       29.1800    2.5290    5.2070 C.3     2  LIG2       -0.0237
     12    C       27.4560   -1.8690    3.7490 C.3     2  LIG2       -0.0593
     13    C       28.4760    0.2210    2.7310 C.3     2  LIG2       -0.0593
     14    C       26.1830    2.6890    2.0210 C.3     2  LIG2       -0.0498
     15    C       24.7180    0.5960    2.4090 C.3     2  LIG2       -0.0621
     16    C       28.3490    4.8930    5.4440 C.3     2  LIG2       -0.0358
     17    H       25.8080   -0.1920    5.0220 H       2  LIG2        0.0312
     18    H       27.8840   -0.6250    6.1530 H       2  LIG2        0.0309
     19    H       25.2790    1.9400    5.1130 H       2  LIG2        0.0310
     20    H       26.0400    3.9080    4.6460 H       2  LIG2        0.0331
     21    H       29.1870    1.1070    6.8010 H       2  LIG2        0.0269
     22    H       30.0670    0.5990    5.4210 H       2  LIG2        0.0269
     23    H       24.3860    2.5500    3.1510 H       2  LIG2        0.0301
     24    H       26.8890    4.6090    2.7280 H       2  LIG2        0.0269
     25    H       28.1510    3.4230    2.6210 H       2  LIG2        0.0269
     26    H       30.0150    2.9930    5.7360 H       2  LIG2        0.0293
     27    H       29.5130    2.5720    4.1740 H       2  LIG2        0.0293
     28    H       28.3950   -2.4110    3.6340 H       2  LIG2        0.0235
     29    H       26.8490   -2.0630    2.8650 H       2  LIG2        0.0235
     30    H       26.9350   -2.3070    4.6020 H       2  LIG2        0.0235
     31    H       29.4690   -0.2240    2.6580 H       2  LIG2        0.0235
     32    H       28.6120    1.2900    2.7820 H       2  LIG2        0.0235
     33    H       27.9560    0.0110    1.7960 H       2  LIG2        0.0235
     34    H       26.7620    2.0130    1.3930 H       2  LIG2        0.0268
     35    H       25.5990    3.3130    1.3430 H       2  LIG2        0.0268
     36    H       25.5170   -0.0860    2.1250 H       2  LIG2        0.0233
     37    H       24.1170    0.7770    1.5180 H       2  LIG2        0.0233
     38    H       24.0820    0.0850    3.1330 H       2  LIG2        0.0233
     39    H       28.8180    5.1920    4.5050 H       2  LIG2        0.0257
     40    H       29.0680    5.1000    6.2400 H       2  LIG2        0.0257
     41    H       27.4970    5.5550    5.6050 H       2  LIG2        0.0257
     42    H       26.9920    2.2970    6.7190 H       2  LIG2        0.2102
@<TRIPOS>BOND
     1    35    14    1
     2    34    14    1
     3    37    15    1
     4    33    13    1
     5    14    10    1
     6    14     8    1
     7    36    15    1
     8    15     8    1
     9    15    38    1
    10    25    10    1
    11    31    13    1
    12    24    10    1
    13    13    32    1
    14    13     3    1
    15    29    12    1
    16    10     6    1
    17     8    23    1
    18     8     5    1
    19    28    12    1
    20    12     3    1
    21    12    30    1
    22     3     2    1
    23     3     4    1
    24    27    11    1
    25     5     6    1
    26     5     2    1
    27     5    19    1
    28     6    20    1
    29     6     9    1
    30    39    16    1
    31     2    17    1
    32     2     4    1
    33    11     9    1
    34    11     7    1
    35    11    26    1
    36     4     7    1
    37     4    18    1
    38     9    16    1
    39     9     1    1
    40    22     7    1
    41    16    41    1
    42    16    40    1
    43     7    21    1
    44     1    42    1
@<TRIPOS>MOLECULE
11996452_1_run_22.pdb
 42 44 0 0 0
SMALL
GASTEIGER

@<TRIPOS>ATOM
      1    O       28.8490    4.6730    4.1050 O.3     2  LIG2       -0.3886
      2    C       27.0090    2.0850    2.6390 C.3     2  LIG2       -0.0289
      3    C       25.6020    1.7260    3.0920 C.3     2  LIG2       -0.0284
      4    C       25.9880    3.1870    2.9990 C.3     2  LIG2       -0.0319
      5    C       28.3800    1.7570    3.3320 C.3     2  LIG2       -0.0294
      6    C       28.8550    2.3230    4.6960 C.3     2  LIG2       -0.0090
      7    C       26.0070    4.1420    4.2160 C.3     2  LIG2       -0.0468
      8    C       28.7260    0.2490    3.4540 C.3     2  LIG2       -0.0404
      9    C       28.4550    3.7630    5.1210 C.3     2  LIG2        0.0664
     10    C       28.6820    1.1910    5.7310 C.3     2  LIG2       -0.0471
     11    C       26.9510    3.9470    5.4130 C.3     2  LIG2       -0.0237
     12    C       24.6360    1.2130    2.0050 C.3     2  LIG2       -0.0593
     13    C       25.3150    1.0580    4.4470 C.3     2  LIG2       -0.0593
     14    C       28.5160   -0.1120    4.9340 C.3     2  LIG2       -0.0498
     15    C       28.0240   -0.7050    2.4670 C.3     2  LIG2       -0.0621
     16    C       29.2660    4.2070    6.3640 C.3     2  LIG2       -0.0358
     17    H       27.1660    1.9570    1.5660 H       2  LIG2        0.0312
     18    H       25.6640    3.7500    2.1220 H       2  LIG2        0.0309
     19    H       29.0880    2.1720    2.6110 H       2  LIG2        0.0310
     20    H       29.9420    2.3860    4.5840 H       2  LIG2        0.0331
     21    H       26.1750    5.1480    3.8260 H       2  LIG2        0.0269
     22    H       24.9890    4.1850    4.6030 H       2  LIG2        0.0269
     23    H       29.7950    0.1460    3.2530 H       2  LIG2        0.0301
     24    H       29.5690    1.1250    6.3630 H       2  LIG2        0.0269
     25    H       27.8490    1.3510    6.4120 H       2  LIG2        0.0269
     26    H       26.8250    4.8390    6.0300 H       2  LIG2        0.0293
     27    H       26.5870    3.1620    6.0710 H       2  LIG2        0.0293
     28    H       23.5990    1.4040    2.2830 H       2  LIG2        0.0235
     29    H       24.7480    0.1390    1.8550 H       2  LIG2        0.0235
     30    H       24.8050    1.6940    1.0420 H       2  LIG2        0.0235
     31    H       24.3200    1.3250    4.8060 H       2  LIG2        0.0235
     32    H       26.0140    1.3340    5.2210 H       2  LIG2        0.0235
     33    H       25.3490   -0.0280    4.3620 H       2  LIG2        0.0235
     34    H       27.5330   -0.5500    5.1040 H       2  LIG2        0.0268
     35    H       29.2450   -0.8570    5.2570 H       2  LIG2        0.0268
     36    H       26.9480   -0.7460    2.6320 H       2  LIG2        0.0233
     37    H       28.4050   -1.7210    2.5720 H       2  LIG2        0.0233
     38    H       28.1930   -0.3990    1.4340 H       2  LIG2        0.0233
     39    H       29.0160    3.6050    7.2390 H       2  LIG2        0.0257
     40    H       29.0750    5.2490    6.6280 H       2  LIG2        0.0257
     41    H       30.3410    4.1120    6.2020 H       2  LIG2        0.0257
     42    H       29.7220    4.4230    3.7950 H       2  LIG2        0.2102
@<TRIPOS>BOND
     1    30    12    1
     2    38    15    1
     3    17     2    1
     4    29    12    1
     5    12    28    1
     6    12     3    1
     7    18     4    1
     8    15    37    1
     9    15    36    1
    10    15     8    1
    11    19     5    1
    12     2     4    1
    13     2     3    1
    14     2     5    1
    15     4     3    1
    16     4     7    1
    17     3    13    1
    18    23     8    1
    19     5     8    1
    20     5     6    1
    21     8    14    1
    22    42     1    1
    23    21     7    1
    24     1     9    1
    25     7    22    1
    26     7    11    1
    27    33    13    1
    28    13    31    1
    29    13    32    1
    30    20     6    1
    31     6     9    1
    32     6    10    1
    33    14    34    1
    34    14    35    1
    35    14    10    1
    36     9    11    1
    37     9    16    1
    38    11    26    1
    39    11    27    1
    40    10    24    1
    41    10    25    1
    42    41    16    1
    43    16    40    1
    44    16    39    1
@<TRIPOS>MOLECULE
11996452_1_run_13.pdb
 42 44 0 0 0
SMALL
GASTEIGER

@<TRIPOS>ATOM
      1    O       26.6300    1.1620    1.9450 O.3     2  LIG2       -0.3886
      2    C       27.9720    3.6200    4.0400 C.3     2  LIG2       -0.0289
      3    C       28.1100    3.4260    5.5420 C.3     2  LIG2       -0.0284
      4    C       28.4260    2.2640    4.6240 C.3     2  LIG2       -0.0319
      5    C       26.6820    3.9430    3.2040 C.3     2  LIG2       -0.0294
      6    C       25.4680    2.9940    3.0230 C.3     2  LIG2       -0.0090
      7    C       27.6480    0.9270    4.6420 C.3     2  LIG2       -0.0468
      8    C       26.0040    5.3040    3.5150 C.3     2  LIG2       -0.0404
      9    C       25.6850    1.4570    2.9620 C.3     2  LIG2        0.0664
     10    C       24.3470    3.5290    3.9400 C.3     2  LIG2       -0.0471
     11    C       26.1550    0.8270    4.2910 C.3     2  LIG2       -0.0237
     12    C       29.3200    4.1000    6.2180 C.3     2  LIG2       -0.0593
     13    C       26.8970    3.3930    6.4870 C.3     2  LIG2       -0.0593
     14    C       24.7360    4.9670    4.3170 C.3     2  LIG2       -0.0498
     15    C       26.8890    6.3870    4.1630 C.3     2  LIG2       -0.0621
     16    C       24.3920    0.7440    2.4980 C.3     2  LIG2       -0.0358
     17    H       28.7810    4.2090    3.6020 H       2  LIG2        0.0312
     18    H       29.4740    2.0520    4.4040 H       2  LIG2        0.0309
     19    H       27.0980    4.0360    2.1980 H       2  LIG2        0.0310
     20    H       25.0990    3.2370    2.0210 H       2  LIG2        0.0331
     21    H       28.1870    0.2380    3.9880 H       2  LIG2        0.0269
     22    H       27.7820    0.4950    5.6340 H       2  LIG2        0.0269
     23    H       25.6720    5.7240    2.5630 H       2  LIG2        0.0301
     24    H       23.3970    3.5330    3.4040 H       2  LIG2        0.0269
     25    H       24.1810    2.9160    4.8230 H       2  LIG2        0.0269
     26    H       25.9350   -0.2420    4.2630 H       2  LIG2        0.0293
     27    H       25.5370    1.1660    5.1180 H       2  LIG2        0.0293
     28    H       29.5980    3.5770    7.1340 H       2  LIG2        0.0235
     29    H       29.0990    5.1340    6.4790 H       2  LIG2        0.0235
     30    H       30.2010    4.1100    5.5750 H       2  LIG2        0.0235
     31    H       27.1070    2.7800    7.3640 H       2  LIG2        0.0235
     32    H       26.0040    2.9940    6.0290 H       2  LIG2        0.0235
     33    H       26.6510    4.3940    6.8410 H       2  LIG2        0.0235
     34    H       24.9050    5.0560    5.3900 H       2  LIG2        0.0268
     35    H       23.9300    5.6610    4.0740 H       2  LIG2        0.0268
     36    H       27.2150    6.1070    5.1630 H       2  LIG2        0.0233
     37    H       26.3470    7.3290    4.2520 H       2  LIG2        0.0233
     38    H       27.7790    6.5800    3.5630 H       2  LIG2        0.0233
     39    H       23.5890    0.8590    3.2280 H       2  LIG2        0.0257
     40    H       24.5420   -0.3280    2.3550 H       2  LIG2        0.0257
     41    H       24.0260    1.1430    1.5500 H       2  LIG2        0.0257
     42    H       26.7710    0.2130    1.9280 H       2  LIG2        0.2102
@<TRIPOS>BOND
     1    41    16    1
     2    42     1    1
     3     1     9    1
     4    20     6    1
     5    19     5    1
     6    40    16    1
     7    16     9    1
     8    16    39    1
     9    23     8    1
    10     9     6    1
    11     9    11    1
    12     6     5    1
    13     6    10    1
    14     5     8    1
    15     5     2    1
    16    24    10    1
    17     8    15    1
    18     8    14    1
    19    38    15    1
    20    17     2    1
    21    10    14    1
    22    10    25    1
    23    21     7    1
    24     2     4    1
    25     2     3    1
    26    35    14    1
    27    15    37    1
    28    15    36    1
    29    26    11    1
    30    11     7    1
    31    11    27    1
    32    14    34    1
    33    18     4    1
    34     4     7    1
    35     4     3    1
    36     7    22    1
    37     3    12    1
    38     3    13    1
    39    30    12    1
    40    32    13    1
    41    12    29    1
    42    12    28    1
    43    13    33    1
    44    13    31    1
