@<TRIPOS>MOLECULE
11996452_11_run_23.pdb
 42 44 0 0 0
SMALL
GASTEIGER

@<TRIPOS>ATOM
      1    O       27.3770    5.4520    5.3750 O.3     2  LIG2       -0.3886
      2    C       27.1180    1.0060    4.3820 C.3     2  LIG2       -0.0289
      3    C       28.1460    0.0680    3.7770 C.3     2  LIG2       -0.0284
      4    C       28.6010    1.1230    4.7630 C.3     2  LIG2       -0.0319
      5    C       26.4680    2.1830    3.6100 C.3     2  LIG2       -0.0294
      6    C       26.3730    3.4440    4.5100 C.3     2  LIG2       -0.0090
      7    C       29.3950    2.3910    4.3700 C.3     2  LIG2       -0.0468
      8    C       25.0420    1.9310    3.0370 C.3     2  LIG2       -0.0404
      9    C       27.6370    4.3690    4.4960 C.3     2  LIG2        0.0664
     10    C       25.0360    4.1030    4.1250 C.3     2  LIG2       -0.0471
     11    C       28.9090    3.6780    5.0750 C.3     2  LIG2       -0.0237
     12    C       28.1220   -1.3880    4.2790 C.3     2  LIG2       -0.0593
     13    C       28.5220    0.1470    2.2780 C.3     2  LIG2       -0.0593
     14    C       24.1260    2.9370    3.7450 C.3     2  LIG2       -0.0498
     15    C       24.5160    0.4820    3.1180 C.3     2  LIG2       -0.0621
     16    C       27.9550    5.0230    3.1280 C.3     2  LIG2       -0.0358
     17    H       26.4610    0.6180    5.1610 H       2  LIG2        0.0312
     18    H       28.9190    0.7510    5.7390 H       2  LIG2        0.0309
     19    H       27.0820    2.4330    2.7490 H       2  LIG2        0.0310
     20    H       26.2410    3.1100    5.5430 H       2  LIG2        0.0331
     21    H       30.4320    2.2230    4.6610 H       2  LIG2        0.0269
     22    H       29.4280    2.5490    3.2950 H       2  LIG2        0.0269
     23    H       25.0530    2.1980    1.9790 H       2  LIG2        0.0301
     24    H       24.6140    4.6830    4.9470 H       2  LIG2        0.0269
     25    H       25.1480    4.7760    3.2750 H       2  LIG2        0.0269
     26    H       28.7440    3.4320    6.1270 H       2  LIG2        0.0293
     27    H       29.7350    4.3920    5.0720 H       2  LIG2        0.0293
     28    H       29.0990   -1.8570    4.1710 H       2  LIG2        0.0235
     29    H       27.4000   -1.9820    3.7160 H       2  LIG2        0.0235
     30    H       27.8430   -1.4560    5.3310 H       2  LIG2        0.0235
     31    H       29.5030   -0.2950    2.1050 H       2  LIG2        0.0235
     32    H       28.5580    1.1550    1.8740 H       2  LIG2        0.0235
     33    H       27.8010   -0.4050    1.6750 H       2  LIG2        0.0235
     34    H       23.3070    3.2660    3.1050 H       2  LIG2        0.0268
     35    H       23.6820    2.4980    4.6410 H       2  LIG2        0.0268
     36    H       24.4090    0.1430    4.1490 H       2  LIG2        0.0233
     37    H       25.1860   -0.2090    2.6050 H       2  LIG2        0.0233
     38    H       23.5370    0.3970    2.6450 H       2  LIG2        0.0233
     39    H       28.1830    4.2900    2.3550 H       2  LIG2        0.0257
     40    H       28.8220    5.6840    3.1950 H       2  LIG2        0.0257
     41    H       27.1320    5.6350    2.7590 H       2  LIG2        0.0257
     42    H       27.2090    5.0970    6.2520 H       2  LIG2        0.2102
@<TRIPOS>BOND
     1    33    13    1
     2    32    13    1
     3    23     8    1
     4    31    13    1
     5    13     3    1
     6    39    16    1
     7    37    15    1
     8    38    15    1
     9    19     5    1
    10    41    16    1
    11     8    15    1
    12     8     5    1
    13     8    14    1
    14    34    14    1
    15    15    36    1
    16    16    40    1
    17    16     9    1
    18    25    10    1
    19    22     7    1
    20     5     2    1
    21     5     6    1
    22    29    12    1
    23    14    10    1
    24    14    35    1
    25     3    12    1
    26     3     2    1
    27     3     4    1
    28    10     6    1
    29    10    24    1
    30    28    12    1
    31    12    30    1
    32     7    21    1
    33     7     4    1
    34     7    11    1
    35     2     4    1
    36     2    17    1
    37     9     6    1
    38     9    11    1
    39     9     1    1
    40     6    20    1
    41     4    18    1
    42    27    11    1
    43    11    26    1
    44     1    42    1
@<TRIPOS>MOLECULE
11996452_11_run_23.pdb
 42 44 0 0 0
SMALL
GASTEIGER

@<TRIPOS>ATOM
      1    O       30.3130   -0.3060    4.1790 O.3     2  LIG2       -0.3886
      2    C       26.9590    2.7240    3.5550 C.3     2  LIG2       -0.0289
      3    C       26.7060    4.0660    4.2170 C.3     2  LIG2       -0.0284
      4    C       28.1270    3.6620    3.8900 C.3     2  LIG2       -0.0319
      5    C       26.8760    1.3670    4.3020 C.3     2  LIG2       -0.0294
      6    C       28.0450    0.4360    3.8800 C.3     2  LIG2       -0.0090
      7    C       29.1730    3.2380    4.9480 C.3     2  LIG2       -0.0468
      8    C       25.5620    0.5530    4.1140 C.3     2  LIG2       -0.0404
      9    C       29.3640    0.6060    4.7070 C.3     2  LIG2        0.0664
     10    C       27.4310   -0.9750    3.8490 C.3     2  LIG2       -0.0471
     11    C       30.0180    2.0110    4.5360 C.3     2  LIG2       -0.0237
     12    C       26.0700    5.1550    3.3320 C.3     2  LIG2       -0.0593
     13    C       26.2080    4.1590    5.6790 C.3     2  LIG2       -0.0593
     14    C       25.9790   -0.7560    3.4330 C.3     2  LIG2       -0.0498
     15    C       24.4100    1.2710    3.3800 C.3     2  LIG2       -0.0621
     16    C       29.2460    0.2470    6.2100 C.3     2  LIG2       -0.0358
     17    H       26.7270    2.6190    2.4950 H       2  LIG2        0.0312
     18    H       28.6000    4.2170    3.0770 H       2  LIG2        0.0309
     19    H       26.9560    1.5390    5.3720 H       2  LIG2        0.0310
     20    H       28.2950    0.6630    2.8400 H       2  LIG2        0.0331
     21    H       29.8520    4.0800    5.0850 H       2  LIG2        0.0269
     22    H       28.7330    3.0710    5.9290 H       2  LIG2        0.0269
     23    H       25.1830    0.2920    5.1040 H       2  LIG2        0.0301
     24    H       27.9490   -1.6310    3.1470 H       2  LIG2        0.0269
     25    H       27.4670   -1.4530    4.8270 H       2  LIG2        0.0269
     26    H       30.3130    2.1520    3.4940 H       2  LIG2        0.0293
     27    H       30.9500    2.0410    5.1050 H       2  LIG2        0.0293
     28    H       26.3250    6.1510    3.6910 H       2  LIG2        0.0235
     29    H       24.9830    5.0680    3.3270 H       2  LIG2        0.0235
     30    H       26.4040    5.0880    2.2950 H       2  LIG2        0.0235
     31    H       26.4470    5.1340    6.1040 H       2  LIG2        0.0235
     32    H       26.6300    3.4150    6.3490 H       2  LIG2        0.0235
     33    H       25.1250    4.0390    5.7220 H       2  LIG2        0.0235
     34    H       25.3490   -1.5940    3.7360 H       2  LIG2        0.0268
     35    H       25.9060   -0.6710    2.3470 H       2  LIG2        0.0268
     36    H       24.6720    1.5180    2.3500 H       2  LIG2        0.0233
     37    H       24.1350    2.1960    3.8880 H       2  LIG2        0.0233
     38    H       23.5200    0.6420    3.3460 H       2  LIG2        0.0233
     39    H       28.5430    0.8870    6.7410 H       2  LIG2        0.0257
     40    H       30.2060    0.3490    6.7200 H       2  LIG2        0.0257
     41    H       28.9240   -0.7830    6.3660 H       2  LIG2        0.0257
     42    H       31.1580    0.1430    4.1050 H       2  LIG2        0.2102
@<TRIPOS>BOND
     1    30    12    1
     2    35    14    1
     3    36    15    1
     4    17     2    1
     5    20     6    1
     6    18     4    1
     7    24    10    1
     8    29    12    1
     9    12    28    1
    10    12     3    1
    11    38    15    1
    12    15    37    1
    13    15     8    1
    14    14    34    1
    15    14    10    1
    16    14     8    1
    17    26    11    1
    18     2     4    1
    19     2     3    1
    20     2     5    1
    21    10     6    1
    22    10    25    1
    23     6     5    1
    24     6     9    1
    25     4     3    1
    26     4     7    1
    27    42     1    1
    28     8     5    1
    29     8    23    1
    30     1     9    1
    31     3    13    1
    32     5    19    1
    33    11     9    1
    34    11     7    1
    35    11    27    1
    36     9    16    1
    37     7    21    1
    38     7    22    1
    39    13    33    1
    40    13    31    1
    41    13    32    1
    42    16    41    1
    43    16    40    1
    44    16    39    1
@<TRIPOS>MOLECULE
11996452_11_run_23.pdb
 42 44 0 0 0
SMALL
GASTEIGER

@<TRIPOS>ATOM
      1    O       26.5370   -1.2500    3.4560 O.3     2  LIG2       -0.3886
      2    C       26.3260    3.0910    4.8460 C.3     2  LIG2       -0.0289
      3    C       25.8100    4.3310    4.1380 C.3     2  LIG2       -0.0284
      4    C       25.0750    3.0190    3.9580 C.3     2  LIG2       -0.0319
      5    C       27.5860    2.3060    4.3980 C.3     2  LIG2       -0.0294
      6    C       27.3360    0.7760    4.4790 C.3     2  LIG2       -0.0090
      7    C       25.1050    2.1810    2.6580 C.3     2  LIG2       -0.0468
      8    C       28.8960    2.5900    5.1890 C.3     2  LIG2       -0.0404
      9    C       26.7010    0.1350    3.1980 C.3     2  LIG2        0.0664
     10    C       28.6760    0.1840    4.9500 C.3     2  LIG2       -0.0471
     11    C       25.2650    0.6620    2.8960 C.3     2  LIG2       -0.0237
     12    C       25.1320    5.3910    5.0250 C.3     2  LIG2       -0.0593
     13    C       26.6000    4.9800    2.9780 C.3     2  LIG2       -0.0593
     14    C       29.2800    1.2600    5.8490 C.3     2  LIG2       -0.0498
     15    C       28.8520    3.7650    6.1900 C.3     2  LIG2       -0.0621
     16    C       27.5800    0.2110    1.9230 C.3     2  LIG2       -0.0358
     17    H       26.1480    2.9980    5.9180 H       2  LIG2        0.0312
     18    H       24.0970    2.9560    4.4380 H       2  LIG2        0.0309
     19    H       27.8150    2.5520    3.3650 H       2  LIG2        0.0310
     20    H       26.6370    0.5930    5.3000 H       2  LIG2        0.0331
     21    H       24.1540    2.3410    2.1500 H       2  LIG2        0.0269
     22    H       25.8600    2.5250    1.9540 H       2  LIG2        0.0269
     23    H       29.6800    2.8280    4.4680 H       2  LIG2        0.0301
     24    H       28.5400   -0.7540    5.4930 H       2  LIG2        0.0269
     25    H       29.3450   -0.0180    4.1150 H       2  LIG2        0.0269
     26    H       24.5960    0.3870    3.7160 H       2  LIG2        0.0293
     27    H       24.8730    0.1430    2.0190 H       2  LIG2        0.0293
     28    H       24.4220    5.9870    4.4520 H       2  LIG2        0.0235
     29    H       25.8690    6.0700    5.4550 H       2  LIG2        0.0235
     30    H       24.5830    4.9440    5.8550 H       2  LIG2        0.0235
     31    H       25.9410    5.5820    2.3530 H       2  LIG2        0.0235
     32    H       27.0960    4.2740    2.3170 H       2  LIG2        0.0235
     33    H       27.3770    5.6400    3.3680 H       2  LIG2        0.0235
     34    H       30.3610    1.1430    5.9360 H       2  LIG2        0.0268
     35    H       28.8640    1.1890    6.8550 H       2  LIG2        0.0268
     36    H       28.1360    3.5900    6.9940 H       2  LIG2        0.0233
     37    H       28.5780    4.6960    5.6930 H       2  LIG2        0.0233
     38    H       29.8270    3.9170    6.6530 H       2  LIG2        0.0233
     39    H       27.7780    1.2350    1.6100 H       2  LIG2        0.0257
     40    H       27.0990   -0.2860    1.0780 H       2  LIG2        0.0257
     41    H       28.5450   -0.2780    2.0570 H       2  LIG2        0.0257
     42    H       26.1970   -1.6690    2.6620 H       2  LIG2        0.2102
@<TRIPOS>BOND
     1    40    16    1
     2    39    16    1
     3    16    41    1
     4    16     9    1
     5    22     7    1
     6    27    11    1
     7    21     7    1
     8    32    13    1
     9    31    13    1
    10     7    11    1
    11     7     4    1
    12    42     1    1
    13    11     9    1
    14    11    26    1
    15    13    33    1
    16    13     3    1
    17     9     1    1
    18     9     6    1
    19    19     5    1
    20     4     3    1
    21     4    18    1
    22     4     2    1
    23    25    10    1
    24     3     2    1
    25     3    12    1
    26     5     6    1
    27     5     2    1
    28     5     8    1
    29    28    12    1
    30    23     8    1
    31     6    10    1
    32     6    20    1
    33     2    17    1
    34    10    24    1
    35    10    14    1
    36    12    29    1
    37    12    30    1
    38     8    14    1
    39     8    15    1
    40    37    15    1
    41    14    34    1
    42    14    35    1
    43    15    38    1
    44    15    36    1
@<TRIPOS>MOLECULE
11996452_11_run_23.pdb
 42 44 0 0 0
SMALL
GASTEIGER

@<TRIPOS>ATOM
      1    O       25.9010    4.6100    3.1840 O.3     2  LIG2       -0.3886
      2    C       27.9770    0.5660    3.5720 C.3     2  LIG2       -0.0289
      3    C       27.4240   -0.8420    3.4570 C.3     2  LIG2       -0.0284
      4    C       26.9040    0.2320    2.5260 C.3     2  LIG2       -0.0319
      5    C       27.6040    1.5470    4.7140 C.3     2  LIG2       -0.0294
      6    C       27.3750    2.9770    4.1550 C.3     2  LIG2       -0.0090
      7    C       25.4990    0.8690    2.6400 C.3     2  LIG2       -0.0468
      8    C       28.6300    1.6770    5.8770 C.3     2  LIG2       -0.0404
      9    C       25.9180    3.2760    3.6650 C.3     2  LIG2        0.0664
     10    C       27.9420    3.9160    5.2360 C.3     2  LIG2       -0.0471
     11    C       25.4890    2.4030    2.4470 C.3     2  LIG2       -0.0237
     12    C       28.3640   -1.8980    2.8440 C.3     2  LIG2       -0.0593
     13    C       26.5360   -1.4500    4.5690 C.3     2  LIG2       -0.0593
     14    C       29.0990    3.1370    5.8560 C.3     2  LIG2       -0.0498
     15    C       29.8010    0.6710    5.8750 C.3     2  LIG2       -0.0621
     16    C       24.8320    3.2280    4.7700 C.3     2  LIG2       -0.0358
     17    H       28.9750    0.7630    3.1760 H       2  LIG2        0.0312
     18    H       27.2040    0.1370    1.4820 H       2  LIG2        0.0309
     19    H       26.6800    1.2200    5.1820 H       2  LIG2        0.0310
     20    H       28.0300    3.1080    3.2890 H       2  LIG2        0.0331
     21    H       24.8820    0.4310    1.8550 H       2  LIG2        0.0269
     22    H       24.9940    0.6110    3.5680 H       2  LIG2        0.0269
     23    H       28.0950    1.5260    6.8160 H       2  LIG2        0.0301
     24    H       28.2840    4.8630    4.8160 H       2  LIG2        0.0269
     25    H       27.2010    4.1470    6.0000 H       2  LIG2        0.0269
     26    H       26.1320    2.6290    1.5920 H       2  LIG2        0.0293
     27    H       24.4840    2.6940    2.1360 H       2  LIG2        0.0293
     28    H       27.7990   -2.7110    2.3910 H       2  LIG2        0.0235
     29    H       29.0180   -2.3260    3.6050 H       2  LIG2        0.0235
     30    H       29.0060   -1.4760    2.0690 H       2  LIG2        0.0235
     31    H       25.9300   -2.2650    4.1740 H       2  LIG2        0.0235
     32    H       25.8490   -0.7470    5.0330 H       2  LIG2        0.0235
     33    H       27.1530   -1.8570    5.3700 H       2  LIG2        0.0235
     34    H       29.3340    3.5060    6.8550 H       2  LIG2        0.0268
     35    H       29.9990    3.2490    5.2480 H       2  LIG2        0.0268
     36    H       30.4380    0.7880    4.9970 H       2  LIG2        0.0233
     37    H       29.4380   -0.3570    5.8910 H       2  LIG2        0.0233
     38    H       30.4320    0.8080    6.7530 H       2  LIG2        0.0233
     39    H       24.7380    2.2420    5.2230 H       2  LIG2        0.0257
     40    H       23.8480    3.4830    4.3720 H       2  LIG2        0.0257
     41    H       25.0290    3.9350    5.5760 H       2  LIG2        0.0257
     42    H       26.5830    4.7000    2.5140 H       2  LIG2        0.2102
@<TRIPOS>BOND
     1    18     4    1
     2    26    11    1
     3    21     7    1
     4    30    12    1
     5    27    11    1
     6    28    12    1
     7    11     7    1
     8    11     9    1
     9    42     1    1
    10     4     7    1
    11     4     3    1
    12     4     2    1
    13     7    22    1
    14    12     3    1
    15    12    29    1
    16    17     2    1
    17     1     9    1
    18    20     6    1
    19     3     2    1
    20     3    13    1
    21     2     5    1
    22     9     6    1
    23     9    16    1
    24     6     5    1
    25     6    10    1
    26    31    13    1
    27    40    16    1
    28    13    32    1
    29    13    33    1
    30     5    19    1
    31     5     8    1
    32    16    39    1
    33    16    41    1
    34    24    10    1
    35    36    15    1
    36    10    14    1
    37    10    25    1
    38    35    14    1
    39    14     8    1
    40    14    34    1
    41    15     8    1
    42    15    37    1
    43    15    38    1
    44     8    23    1
@<TRIPOS>MOLECULE
11996452_11_run_9.pdb
 42 44 0 0 0
SMALL
GASTEIGER

@<TRIPOS>ATOM
      1    O       30.1400   -0.9760    4.3550 O.3     2  LIG2       -0.3886
      2    C       26.4440    1.6880    4.6080 C.3     2  LIG2       -0.0289
      3    C       25.1550    1.6670    3.8060 C.3     2  LIG2       -0.0284
      4    C       25.8020    0.3550    4.1950 C.3     2  LIG2       -0.0319
      5    C       27.8270    2.0500    4.0050 C.3     2  LIG2       -0.0294
      6    C       28.9250    1.0920    4.5400 C.3     2  LIG2       -0.0090
      7    C       26.5390   -0.5750    3.2030 C.3     2  LIG2       -0.0468
      8    C       28.3320    3.5000    4.2580 C.3     2  LIG2       -0.0404
      9    C       29.1150   -0.2290    3.7200 C.3     2  LIG2        0.0664
     10    C       30.1710    1.9800    4.7090 C.3     2  LIG2       -0.0471
     11    C       27.8620   -1.1560    3.7530 C.3     2  LIG2       -0.0237
     12    C       23.8730    2.0620    4.5620 C.3     2  LIG2       -0.0593
     13    C       25.1170    2.1450    2.3340 C.3     2  LIG2       -0.0593
     14    C       29.6200    3.3540    5.0790 C.3     2  LIG2       -0.0498
     15    C       27.3220    4.4780    4.8950 C.3     2  LIG2       -0.0621
     16    C       29.5990   -0.0310    2.2610 C.3     2  LIG2       -0.0358
     17    H       26.3860    1.9290    5.6700 H       2  LIG2        0.0312
     18    H       25.2730   -0.2250    4.9520 H       2  LIG2        0.0309
     19    H       27.7880    1.9430    2.9250 H       2  LIG2        0.0310
     20    H       28.6460    0.7940    5.5550 H       2  LIG2        0.0331
     21    H       25.8720   -1.4100    2.9890 H       2  LIG2        0.0269
     22    H       26.7160   -0.1050    2.2380 H       2  LIG2        0.0269
     23    H       28.6140    3.9310    3.2950 H       2  LIG2        0.0301
     24    H       30.8410    1.6020    5.4840 H       2  LIG2        0.0269
     25    H       30.7460    2.0480    3.7870 H       2  LIG2        0.0269
     26    H       27.6740   -1.4800    4.7800 H       2  LIG2        0.0293
     27    H       28.0810   -2.0710    3.1980 H       2  LIG2        0.0293
     28    H       22.9930    1.6120    4.1050 H       2  LIG2        0.0235
     29    H       23.7370    3.1440    4.5600 H       2  LIG2        0.0235
     30    H       23.8970    1.7430    5.6050 H       2  LIG2        0.0235
     31    H       24.2620    1.7150    1.8130 H       2  LIG2        0.0235
     32    H       25.9990    1.8880    1.7530 H       2  LIG2        0.0235
     33    H       25.0200    3.2300    2.2880 H       2  LIG2        0.0235
     34    H       30.3390    4.1430    4.8550 H       2  LIG2        0.0268
     35    H       29.4080    3.4020    6.1480 H       2  LIG2        0.0268
     36    H       27.0270    4.1650    5.8970 H       2  LIG2        0.0233
     37    H       26.4200    4.5620    4.2900 H       2  LIG2        0.0233
     38    H       27.7510    5.4770    4.9820 H       2  LIG2        0.0233
     39    H       28.8890    0.5310    1.6560 H       2  LIG2        0.0257
     40    H       29.7480   -0.9880    1.7580 H       2  LIG2        0.0257
     41    H       30.5520    0.4950    2.2090 H       2  LIG2        0.0257
     42    H       30.9760   -0.5260    4.2130 H       2  LIG2        0.2102
@<TRIPOS>BOND
     1    39    16    1
     2    32    13    1
     3    40    16    1
     4    31    13    1
     5    41    16    1
     6    22     7    1
     7    16     9    1
     8    33    13    1
     9    13     3    1
    10    19     5    1
    11    21     7    1
    12    27    11    1
    13     7    11    1
    14     7     4    1
    15    23     8    1
    16     9    11    1
    17     9     1    1
    18     9     6    1
    19    11    26    1
    20    25    10    1
    21     3     4    1
    22     3    12    1
    23     3     2    1
    24     5     8    1
    25     5     6    1
    26     5     2    1
    27    28    12    1
    28     4     2    1
    29     4    18    1
    30    42     1    1
    31     8    15    1
    32     8    14    1
    33    37    15    1
    34     6    10    1
    35     6    20    1
    36    29    12    1
    37    12    30    1
    38     2    17    1
    39    10    14    1
    40    10    24    1
    41    34    14    1
    42    15    38    1
    43    15    36    1
    44    14    35    1
@<TRIPOS>MOLECULE
11996452_11_run_13.pdb
 42 44 0 0 0
SMALL
GASTEIGER

@<TRIPOS>ATOM
      1    O       24.6280    5.0730    5.0700 O.3     2  LIG2       -0.3886
      2    C       27.5090    1.5370    5.1930 C.3     2  LIG2       -0.0289
      3    C       29.0230    1.4940    5.1100 C.3     2  LIG2       -0.0284
      4    C       28.3590    2.6160    5.8790 C.3     2  LIG2       -0.0319
      5    C       26.5940    1.9660    4.0170 C.3     2  LIG2       -0.0294
      6    C       25.4430    2.8770    4.5210 C.3     2  LIG2       -0.0090
      7    C       28.2840    4.0800    5.3840 C.3     2  LIG2       -0.0468
      8    C       25.9330    0.8180    3.1990 C.3     2  LIG2       -0.0404
      9    C       25.7800    4.4060    4.5800 C.3     2  LIG2        0.0664
     10    C       24.2230    2.4760    3.6720 C.3     2  LIG2       -0.0471
     11    C       26.9060    4.7460    5.6030 C.3     2  LIG2       -0.0237
     12    C       29.7230    0.4020    5.9400 C.3     2  LIG2       -0.0593
     13    C       29.7620    1.7550    3.7760 C.3     2  LIG2       -0.0593
     14    C       24.4210    0.9890    3.3900 C.3     2  LIG2       -0.0498
     15    C       26.4190   -0.6140    3.5120 C.3     2  LIG2       -0.0621
     16    C       26.0810    5.0650    3.2100 C.3     2  LIG2       -0.0358
     17    H       27.0090    0.8360    5.8630 H       2  LIG2        0.0312
     18    H       28.4750    2.5780    6.9630 H       2  LIG2        0.0309
     19    H       27.1760    2.5330    3.2950 H       2  LIG2        0.0310
     20    H       25.1950    2.5710    5.5410 H       2  LIG2        0.0331
     21    H       29.0230    4.6480    5.9480 H       2  LIG2        0.0269
     22    H       28.5840    4.1870    4.3430 H       2  LIG2        0.0269
     23    H       26.1450    0.9920    2.1430 H       2  LIG2        0.0301
     24    H       23.2830    2.6570    4.1950 H       2  LIG2        0.0269
     25    H       24.1860    3.0280    2.7340 H       2  LIG2        0.0269
     26    H       26.5750    4.4860    6.6110 H       2  LIG2        0.0293
     27    H       27.0570    5.8270    5.6200 H       2  LIG2        0.0293
     28    H       30.7420    0.6920    6.1920 H       2  LIG2        0.0235
     29    H       29.7690   -0.5380    5.3880 H       2  LIG2        0.0235
     30    H       29.2010    0.2000    6.8770 H       2  LIG2        0.0235
     31    H       30.7900    2.0660    3.9600 H       2  LIG2        0.0235
     32    H       29.3110    2.5230    3.1520 H       2  LIG2        0.0235
     33    H       29.7970    0.8460    3.1750 H       2  LIG2        0.0235
     34    H       23.8600    0.6750    2.5090 H       2  LIG2        0.0268
     35    H       24.0640    0.3940    4.2320 H       2  LIG2        0.0268
     36    H       26.1920   -0.9070    4.5380 H       2  LIG2        0.0233
     37    H       27.4950   -0.7060    3.3670 H       2  LIG2        0.0233
     38    H       25.9380   -1.3390    2.8550 H       2  LIG2        0.0233
     39    H       26.9600    4.6410    2.7250 H       2  LIG2        0.0257
     40    H       26.2690    6.1350    3.3160 H       2  LIG2        0.0257
     41    H       25.2500    4.9670    2.5120 H       2  LIG2        0.0257
     42    H       24.3740    4.6690    5.9030 H       2  LIG2        0.2102
@<TRIPOS>BOND
     1    23     8    1
     2    34    14    1
     3    41    16    1
     4    39    16    1
     5    25    10    1
     6    38    15    1
     7    32    13    1
     8    33    13    1
     9     8    14    1
    10     8    15    1
    11     8     5    1
    12    16    40    1
    13    16     9    1
    14    19     5    1
    15    37    15    1
    16    14    10    1
    17    14    35    1
    18    15    36    1
    19    10    24    1
    20    10     6    1
    21    13    31    1
    22    13     3    1
    23     5     6    1
    24     5     2    1
    25    22     7    1
    26     6     9    1
    27     6    20    1
    28     9     1    1
    29     9    11    1
    30     1    42    1
    31     3     2    1
    32     3     4    1
    33     3    12    1
    34     2    17    1
    35     2     4    1
    36     7    11    1
    37     7     4    1
    38     7    21    1
    39    29    12    1
    40    11    27    1
    41    11    26    1
    42     4    18    1
    43    12    28    1
    44    12    30    1
@<TRIPOS>MOLECULE
11996452_11_run_8.pdb
 42 44 0 0 0
SMALL
GASTEIGER

@<TRIPOS>ATOM
      1    O       30.1340    3.8930    4.8550 O.3     2  LIG2       -0.3886
      2    C       26.5110    1.7010    3.1560 C.3     2  LIG2       -0.0289
      3    C       25.0500    2.1060    3.0990 C.3     2  LIG2       -0.0284
      4    C       26.1150    3.1580    2.8770 C.3     2  LIG2       -0.0319
      5    C       27.2680    1.3900    4.4740 C.3     2  LIG2       -0.0294
      6    C       28.6900    2.0130    4.4500 C.3     2  LIG2       -0.0090
      7    C       26.4720    4.2590    3.9020 C.3     2  LIG2       -0.0468
      8    C       27.4420   -0.1150    4.8320 C.3     2  LIG2       -0.0404
      9    C       28.7780    3.4920    4.9590 C.3     2  LIG2        0.0664
     10    C       29.5810    0.9850    5.1700 C.3     2  LIG2       -0.0471
     11    C       27.9910    4.4970    4.0630 C.3     2  LIG2       -0.0237
     12    C       24.2600    1.6430    1.8610 C.3     2  LIG2       -0.0593
     13    C       24.1670    2.1050    4.3700 C.3     2  LIG2       -0.0593
     14    C       28.9550   -0.3670    4.8400 C.3     2  LIG2       -0.0498
     15    C       26.6700   -1.1230    3.9550 C.3     2  LIG2       -0.0621
     16    C       28.4060    3.6950    6.4500 C.3     2  LIG2       -0.0358
     17    H       26.9290    1.1560    2.3080 H       2  LIG2        0.0312
     18    H       26.1990    3.5350    1.8560 H       2  LIG2        0.0309
     19    H       26.7280    1.8240    5.3100 H       2  LIG2        0.0310
     20    H       29.0370    2.0180    3.4130 H       2  LIG2        0.0331
     21    H       26.0250    5.1880    3.5460 H       2  LIG2        0.0269
     22    H       26.0200    4.0880    4.8770 H       2  LIG2        0.0269
     23    H       27.0880   -0.2600    5.8550 H       2  LIG2        0.0301
     24    H       30.6170    1.0340    4.8310 H       2  LIG2        0.0269
     25    H       29.5830    1.1380    6.2480 H       2  LIG2        0.0269
     26    H       28.4280    4.5120    3.0610 H       2  LIG2        0.0293
     27    H       28.1320    5.5070    4.4530 H       2  LIG2        0.0293
     28    H       23.4170    2.3040    1.6630 H       2  LIG2        0.0235
     29    H       23.8690    0.6340    2.0020 H       2  LIG2        0.0235
     30    H       24.8780    1.6250    0.9620 H       2  LIG2        0.0235
     31    H       23.3080    2.7640    4.2410 H       2  LIG2        0.0235
     32    H       24.6750    2.4290    5.2740 H       2  LIG2        0.0235
     33    H       23.7850    1.1030    4.5690 H       2  LIG2        0.0235
     34    H       29.2400   -1.1250    5.5710 H       2  LIG2        0.0268
     35    H       29.2970   -0.7140    3.8630 H       2  LIG2        0.0268
     36    H       27.0020   -1.0990    2.9160 H       2  LIG2        0.0233
     37    H       25.5990   -0.9200    3.9710 H       2  LIG2        0.0233
     38    H       26.8130   -2.1420    4.3170 H       2  LIG2        0.0233
     39    H       27.3720    3.4260    6.6650 H       2  LIG2        0.0257
     40    H       28.5250    4.7380    6.7510 H       2  LIG2        0.0257
     41    H       29.0370    3.1090    7.1180 H       2  LIG2        0.0257
     42    H       30.3710    3.9260    3.9250 H       2  LIG2        0.2102
@<TRIPOS>BOND
     1    30    12    1
     2    28    12    1
     3    18     4    1
     4    12    29    1
     5    12     3    1
     6    17     2    1
     7     4     3    1
     8     4     2    1
     9     4     7    1
    10    36    15    1
    11    26    11    1
    12     3     2    1
    13     3    13    1
    14     2     5    1
    15    20     6    1
    16    21     7    1
    17    35    14    1
    18     7    11    1
    19     7    22    1
    20    42     1    1
    21    15    37    1
    22    15    38    1
    23    15     8    1
    24    11    27    1
    25    11     9    1
    26    31    13    1
    27    13    33    1
    28    13    32    1
    29     6     5    1
    30     6     9    1
    31     6    10    1
    32     5     8    1
    33     5    19    1
    34    24    10    1
    35     8    14    1
    36     8    23    1
    37    14    10    1
    38    14    34    1
    39     1     9    1
    40     9    16    1
    41    10    25    1
    42    16    39    1
    43    16    40    1
    44    16    41    1
@<TRIPOS>MOLECULE
11996452_11_run_1.pdb
 42 44 0 0 0
SMALL
GASTEIGER

@<TRIPOS>ATOM
      1    O       24.8350    7.8060    4.4150 O.3     2  LIG2       -0.3886
      2    C       26.3590    3.5280    4.8560 C.3     2  LIG2       -0.0289
      3    C       27.6880    2.9080    4.4660 C.3     2  LIG2       -0.0284
      4    C       27.6670    4.3110    5.0320 C.3     2  LIG2       -0.0319
      5    C       25.3230    4.0580    3.8310 C.3     2  LIG2       -0.0294
      6    C       24.7190    5.4060    4.3090 C.3     2  LIG2       -0.0090
      7    C       27.9150    5.5870    4.1940 C.3     2  LIG2       -0.0468
      8    C       24.1250    3.1170    3.5090 C.3     2  LIG2       -0.0404
      9    C       25.5220    6.6830    3.8860 C.3     2  LIG2        0.0664
     10    C       23.2420    5.3490    3.8770 C.3     2  LIG2       -0.0471
     11    C       26.9460    6.7480    4.5170 C.3     2  LIG2       -0.0237
     12    C       28.2190    1.7940    5.3880 C.3     2  LIG2       -0.0593
     13    C       28.0450    2.6390    2.9850 C.3     2  LIG2       -0.0593
     14    C       22.8700    3.8720    3.9650 C.3     2  LIG2       -0.0498
     15    C       24.2040    1.6850    4.0800 C.3     2  LIG2       -0.0621
     16    C       25.5980    6.9330    2.3590 C.3     2  LIG2       -0.0358
     17    H       25.8840    3.1910    5.7780 H       2  LIG2        0.0312
     18    H       28.0780    4.4210    6.0370 H       2  LIG2        0.0309
     19    H       25.8150    4.2320    2.8780 H       2  LIG2        0.0310
     20    H       24.6980    5.3960    5.4020 H       2  LIG2        0.0331
     21    H       28.9270    5.9270    4.4160 H       2  LIG2        0.0269
     22    H       27.9140    5.3940    3.1240 H       2  LIG2        0.0269
     23    H       24.0600    3.0140    2.4240 H       2  LIG2        0.0301
     24    H       22.6040    5.9570    4.5210 H       2  LIG2        0.0269
     25    H       23.1060    5.7040    2.8560 H       2  LIG2        0.0269
     26    H       26.8610    6.8090    5.6050 H       2  LIG2        0.0293
     27    H       27.4280    7.6800    4.2140 H       2  LIG2        0.0293
     28    H       29.3050    1.7210    5.3300 H       2  LIG2        0.0235
     29    H       27.8030    0.8250    5.1090 H       2  LIG2        0.0235
     30    H       27.9600    1.9670    6.4330 H       2  LIG2        0.0235
     31    H       29.1250    2.5700    2.8570 H       2  LIG2        0.0235
     32    H       27.6970    3.3990    2.2900 H       2  LIG2        0.0235
     33    H       27.6130    1.6940    2.6540 H       2  LIG2        0.0235
     34    H       22.0060    3.6430    3.3400 H       2  LIG2        0.0268
     35    H       22.6080    3.6090    4.9910 H       2  LIG2        0.0268
     36    H       24.2080    1.6800    5.1710 H       2  LIG2        0.0233
     37    H       25.1040    1.1740    3.7380 H       2  LIG2        0.0233
     38    H       23.3490    1.0900    3.7570 H       2  LIG2        0.0233
     39    H       26.1160    6.1350    1.8280 H       2  LIG2        0.0257
     40    H       26.1360    7.8560    2.1340 H       2  LIG2        0.0257
     41    H       24.6120    7.0350    1.9060 H       2  LIG2        0.0257
     42    H       25.0220    7.8610    5.3550 H       2  LIG2        0.2102
@<TRIPOS>BOND
     1    39    16    1
     2    41    16    1
     3    40    16    1
     4    32    13    1
     5    16     9    1
     6    23     8    1
     7    33    13    1
     8    25    10    1
     9    31    13    1
    10    19     5    1
    11    13     3    1
    12    22     7    1
    13    34    14    1
    14     8     5    1
    15     8    14    1
    16     8    15    1
    17    37    15    1
    18    38    15    1
    19     5     6    1
    20     5     2    1
    21    10    14    1
    22    10     6    1
    23    10    24    1
    24     9     6    1
    25     9     1    1
    26     9    11    1
    27    14    35    1
    28    15    36    1
    29     7    21    1
    30     7    11    1
    31     7     4    1
    32    27    11    1
    33     6    20    1
    34     1    42    1
    35     3     2    1
    36     3     4    1
    37     3    12    1
    38    11    26    1
    39     2     4    1
    40     2    17    1
    41     4    18    1
    42    29    12    1
    43    28    12    1
    44    12    30    1
@<TRIPOS>MOLECULE
11996452_11_run_24.pdb
 42 44 0 0 0
SMALL
GASTEIGER

@<TRIPOS>ATOM
      1    O       28.3260    6.0380    5.6040 O.3     2  LIG2       -0.3886
      2    C       25.8190    2.4390    4.3470 C.3     2  LIG2       -0.0289
      3    C       26.1540    1.2720    3.4360 C.3     2  LIG2       -0.0284
      4    C       27.2210    1.8130    4.3630 C.3     2  LIG2       -0.0319
      5    C       25.6790    3.9030    3.8550 C.3     2  LIG2       -0.0294
      6    C       26.3550    4.8830    4.8500 C.3     2  LIG2       -0.0090
      7    C       28.4370    2.6450    3.8920 C.3     2  LIG2       -0.0468
      8    C       24.2280    4.4200    3.6290 C.3     2  LIG2       -0.0404
      9    C       27.8810    5.1370    4.6030 C.3     2  LIG2        0.0664
     10    C       25.4450    6.1250    4.8570 C.3     2  LIG2       -0.0471
     11    C       28.7540    3.8590    4.7960 C.3     2  LIG2       -0.0237
     12    C       25.5320   -0.0860    3.8080 C.3     2  LIG2       -0.0593
     13    C       26.2490    1.4530    1.9020 C.3     2  LIG2       -0.0593
     14    C       24.0410    5.5770    4.6190 C.3     2  LIG2       -0.0498
     15    C       23.1020    3.3670    3.7180 C.3     2  LIG2       -0.0621
     16    C       28.2220    5.8230    3.2560 C.3     2  LIG2       -0.0358
     17    H       25.2070    2.2450    5.2290 H       2  LIG2        0.0312
     18    H       27.4940    1.1650    5.1980 H       2  LIG2        0.0309
     19    H       26.1740    4.0090    2.8940 H       2  LIG2        0.0310
     20    H       26.2670    4.4570    5.8540 H       2  LIG2        0.0331
     21    H       29.3040    1.9850    3.9060 H       2  LIG2        0.0269
     22    H       28.3490    2.9690    2.8570 H       2  LIG2        0.0269
     23    H       24.1750    4.8460    2.6250 H       2  LIG2        0.0301
     24    H       25.5030    6.6680    5.8020 H       2  LIG2        0.0269
     25    H       25.7090    6.8230    4.0640 H       2  LIG2        0.0269
     26    H       28.6830    3.5220    5.8330 H       2  LIG2        0.0293
     27    H       29.8040    4.1200    4.6490 H       2  LIG2        0.0293
     28    H       26.1340   -0.9110    3.4280 H       2  LIG2        0.0235
     29    H       24.5280   -0.1830    3.3930 H       2  LIG2        0.0235
     30    H       25.4480   -0.2170    4.8880 H       2  LIG2        0.0235
     31    H       26.8540    0.6630    1.4590 H       2  LIG2        0.0235
     32    H       26.6850    2.3960    1.5840 H       2  LIG2        0.0235
     33    H       25.2570    1.4010    1.4500 H       2  LIG2        0.0235
     34    H       23.3760    6.3480    4.2270 H       2  LIG2        0.0268
     35    H       23.6100    5.2230    5.5570 H       2  LIG2        0.0268
     36    H       23.0330    2.9270    4.7130 H       2  LIG2        0.0233
     37    H       23.2610    2.5600    3.0030 H       2  LIG2        0.0233
     38    H       22.1340    3.8150    3.4940 H       2  LIG2        0.0233
     39    H       27.9330    5.2220    2.3940 H       2  LIG2        0.0257
     40    H       29.2940    6.0050    3.1620 H       2  LIG2        0.0257
     41    H       27.7360    6.7920    3.1500 H       2  LIG2        0.0257
     42    H       27.9650    5.7570    6.4480 H       2  LIG2        0.2102
@<TRIPOS>BOND
     1    33    13    1
     2    31    13    1
     3    32    13    1
     4    13     3    1
     5    39    16    1
     6    23     8    1
     7    22     7    1
     8    19     5    1
     9    37    15    1
    10    41    16    1
    11    40    16    1
    12    16     9    1
    13    29    12    1
    14    28    12    1
    15     3    12    1
    16     3     2    1
    17     3     4    1
    18    38    15    1
    19     8    15    1
    20     8     5    1
    21     8    14    1
    22    15    36    1
    23    12    30    1
    24     5     2    1
    25     5     6    1
    26     7    21    1
    27     7     4    1
    28     7    11    1
    29    25    10    1
    30    34    14    1
    31     2     4    1
    32     2    17    1
    33     4    18    1
    34     9    11    1
    35     9     6    1
    36     9     1    1
    37    14    10    1
    38    14    35    1
    39    27    11    1
    40    11    26    1
    41     6    10    1
    42     6    20    1
    43    10    24    1
    44     1    42    1
@<TRIPOS>MOLECULE
11996452_11_run_10.pdb
 42 44 0 0 0
SMALL
GASTEIGER

@<TRIPOS>ATOM
      1    O       23.3910    3.2050    2.6050 O.3     2  LIG2       -0.3886
      2    C       27.7450    2.2590    3.5870 C.3     2  LIG2       -0.0289
      3    C       28.4080    0.9490    3.9700 C.3     2  LIG2       -0.0284
      4    C       27.3140    0.9430    2.9250 C.3     2  LIG2       -0.0319
      5    C       26.7160    2.9970    4.4830 C.3     2  LIG2       -0.0294
      6    C       25.5400    3.5450    3.6300 C.3     2  LIG2       -0.0090
      7    C       25.8880    0.3940    3.1680 C.3     2  LIG2       -0.0468
      8    C       27.2600    4.1920    5.3200 C.3     2  LIG2       -0.0404
      9    C       24.3560    2.5440    3.4060 C.3     2  LIG2        0.0664
     10    C       25.1830    4.8960    4.2760 C.3     2  LIG2       -0.0471
     11    C       24.7660    1.2840    2.5840 C.3     2  LIG2       -0.0237
     12    C       29.8500    0.7410    3.4690 C.3     2  LIG2       -0.0593
     13    C       28.1960    0.3200    5.3680 C.3     2  LIG2       -0.0593
     14    C       26.5080    5.4300    4.8130 C.3     2  LIG2       -0.0498
     15    C       28.7910    4.3830    5.3290 C.3     2  LIG2       -0.0621
     16    C       23.6010    2.1240    4.6930 C.3     2  LIG2       -0.0358
     17    H       28.2970    2.9490    2.9470 H       2  LIG2        0.0312
     18    H       27.6380    0.7420    1.9030 H       2  LIG2        0.0309
     19    H       26.3060    2.3020    5.2090 H       2  LIG2        0.0310
     20    H       25.9310    3.7950    2.6400 H       2  LIG2        0.0331
     21    H       25.8300   -0.5790    2.6790 H       2  LIG2        0.0269
     22    H       25.6890    0.1920    4.2180 H       2  LIG2        0.0269
     23    H       26.9610    4.0390    6.3580 H       2  LIG2        0.0301
     24    H       24.7410    5.5880    3.5570 H       2  LIG2        0.0269
     25    H       24.4730    4.7780    5.0930 H       2  LIG2        0.0269
     26    H       25.0790    1.5880    1.5820 H       2  LIG2        0.0293
     27    H       23.8860    0.6560    2.4330 H       2  LIG2        0.0293
     28    H       30.0850   -0.3190    3.3800 H       2  LIG2        0.0235
     29    H       30.5700    1.1880    4.1560 H       2  LIG2        0.0235
     30    H       30.0140    1.1940    2.4900 H       2  LIG2        0.0235
     31    H       28.4020   -0.7490    5.3430 H       2  LIG2        0.0235
     32    H       27.1920    0.4350    5.7680 H       2  LIG2        0.0235
     33    H       28.8730    0.7690    6.0950 H       2  LIG2        0.0235
     34    H       26.3480    6.1630    5.6040 H       2  LIG2        0.0268
     35    H       27.0660    5.9270    4.0180 H       2  LIG2        0.0268
     36    H       29.1810    4.6070    4.3350 H       2  LIG2        0.0233
     37    H       29.2970    3.4890    5.6950 H       2  LIG2        0.0233
     38    H       29.0760    5.2080    5.9820 H       2  LIG2        0.0233
     39    H       24.2370    1.5920    5.3990 H       2  LIG2        0.0257
     40    H       22.7660    1.4580    4.4650 H       2  LIG2        0.0257
     41    H       23.1760    2.9770    5.2210 H       2  LIG2        0.0257
     42    H       22.6080    2.6520    2.5540 H       2  LIG2        0.2102
@<TRIPOS>BOND
     1    26    11    1
     2    18     4    1
     3    27    11    1
     4    30    12    1
     5    42     1    1
     6    11     7    1
     7    11     9    1
     8     1     9    1
     9    20     6    1
    10    21     7    1
    11     4     7    1
    12     4     2    1
    13     4     3    1
    14    17     2    1
    15     7    22    1
    16    28    12    1
    17     9     6    1
    18     9    16    1
    19    12     3    1
    20    12    29    1
    21    24    10    1
    22     2     3    1
    23     2     5    1
    24     6    10    1
    25     6     5    1
    26     3    13    1
    27    35    14    1
    28    10    14    1
    29    10    25    1
    30    36    15    1
    31    40    16    1
    32     5    19    1
    33     5     8    1
    34    16    41    1
    35    16    39    1
    36    14     8    1
    37    14    34    1
    38     8    15    1
    39     8    23    1
    40    15    37    1
    41    15    38    1
    42    31    13    1
    43    13    32    1
    44    13    33    1
