@<TRIPOS>MOLECULE
11996452_10_run_19.pdb
 42 44 0 0 0
SMALL
GASTEIGER

@<TRIPOS>ATOM
      1    O       27.0510   -0.1850    4.8600 O.3     2  LIG2       -0.3886
      2    C       25.6010    3.8970    3.3850 C.3     2  LIG2       -0.0289
      3    C       24.5110    4.1670    4.4100 C.3     2  LIG2       -0.0284
      4    C       24.3690    2.9700    3.4850 C.3     2  LIG2       -0.0319
      5    C       27.0670    3.3980    3.6190 C.3     2  LIG2       -0.0294
      6    C       27.3590    2.1380    4.4780 C.3     2  LIG2       -0.0090
      7    C       24.5000    1.5040    3.9600 C.3     2  LIG2       -0.0468
      8    C       28.1060    4.4830    4.0390 C.3     2  LIG2       -0.0404
      9    C       27.0230    0.7630    3.8040 C.3     2  LIG2        0.0664
     10    C       28.8150    2.3290    4.9370 C.3     2  LIG2       -0.0471
     11    C       25.5860    0.7040    3.2140 C.3     2  LIG2       -0.0237
     12    C       24.6690    3.9860    5.9390 C.3     2  LIG2       -0.0593
     13    C       23.6070    5.3770    4.1050 C.3     2  LIG2       -0.0593
     14    C       28.9600    3.8350    5.1400 C.3     2  LIG2       -0.0498
     15    C       27.5420    5.8510    4.4740 C.3     2  LIG2       -0.0621
     16    C       28.0380    0.2820    2.7390 C.3     2  LIG2       -0.0358
     17    H       25.6060    4.5750    2.5300 H       2  LIG2        0.0312
     18    H       23.5990    3.0580    2.7160 H       2  LIG2        0.0309
     19    H       27.3810    3.1100    2.6140 H       2  LIG2        0.0310
     20    H       26.7840    2.2040    5.3920 H       2  LIG2        0.0331
     21    H       24.6200    1.4080    5.0370 H       2  LIG2        0.0269
     22    H       23.5440    1.0190    3.7530 H       2  LIG2        0.0269
     23    H       28.7610    4.6770    3.1870 H       2  LIG2        0.0301
     24    H       29.0320    1.7800    5.8550 H       2  LIG2        0.0269
     25    H       29.5280    2.0000    4.1820 H       2  LIG2        0.0269
     26    H       25.2670   -0.3360    3.1280 H       2  LIG2        0.0293
     27    H       25.6070    1.0640    2.1840 H       2  LIG2        0.0293
     28    H       23.6880    3.8940    6.4060 H       2  LIG2        0.0235
     29    H       25.1520    4.8510    6.3910 H       2  LIG2        0.0235
     30    H       25.2220    3.1150    6.2610 H       2  LIG2        0.0235
     31    H       22.6250    5.2620    4.5680 H       2  LIG2        0.0235
     32    H       23.4400    5.5110    3.0350 H       2  LIG2        0.0235
     33    H       24.0480    6.3000    4.4800 H       2  LIG2        0.0235
     34    H       30.0040    4.1430    5.0800 H       2  LIG2        0.0268
     35    H       28.5970    4.1130    6.1310 H       2  LIG2        0.0268
     36    H       26.9100    5.7700    5.3560 H       2  LIG2        0.0233
     37    H       26.9560    6.3140    3.6810 H       2  LIG2        0.0233
     38    H       28.3490    6.5420    4.7190 H       2  LIG2        0.0233
     39    H       28.1550    1.0130    1.9380 H       2  LIG2        0.0257
     40    H       27.7170   -0.6530    2.2780 H       2  LIG2        0.0257
     41    H       29.0250    0.0950    3.1600 H       2  LIG2        0.0257
     42    H       26.3910    0.0670    5.5110 H       2  LIG2        0.2102
@<TRIPOS>BOND
     1    39    16    1
     2    27    11    1
     3    40    16    1
     4    17     2    1
     5    19     5    1
     6    18     4    1
     7    16    41    1
     8    16     9    1
     9    32    13    1
    10    26    11    1
    11    23     8    1
    12    11     9    1
    13    11     7    1
    14     2     4    1
    15     2     5    1
    16     2     3    1
    17     4     7    1
    18     4     3    1
    19     5     8    1
    20     5     6    1
    21    37    15    1
    22    22     7    1
    23     9     6    1
    24     9     1    1
    25     7    21    1
    26     8    15    1
    27     8    14    1
    28    13     3    1
    29    13    33    1
    30    13    31    1
    31    25    10    1
    32     3    12    1
    33    15    38    1
    34    15    36    1
    35     6    10    1
    36     6    20    1
    37     1    42    1
    38    10    14    1
    39    10    24    1
    40    34    14    1
    41    14    35    1
    42    12    30    1
    43    12    29    1
    44    12    28    1
@<TRIPOS>MOLECULE
11996452_10_run_14.pdb
 42 44 0 0 0
SMALL
GASTEIGER

@<TRIPOS>ATOM
      1    O       29.1470    0.2650    3.1330 O.3     2  LIG2       -0.3886
      2    C       26.6120    3.5820    5.0050 C.3     2  LIG2       -0.0289
      3    C       27.1560    4.7800    4.2430 C.3     2  LIG2       -0.0284
      4    C       28.0950    3.9930    5.1420 C.3     2  LIG2       -0.0319
      5    C       26.1580    2.1900    4.4490 C.3     2  LIG2       -0.0294
      6    C       27.0760    1.3620    3.5110 C.3     2  LIG2       -0.0090
      7    C       29.2330    3.0920    4.6050 C.3     2  LIG2       -0.0468
      8    C       24.7190    2.1230    3.8510 C.3     2  LIG2       -0.0404
      9    C       28.2990    0.6620    4.1990 C.3     2  LIG2        0.0664
     10    C       26.1030    0.4380    2.7580 C.3     2  LIG2       -0.0471
     11    C       29.1410    1.6280    5.0790 C.3     2  LIG2       -0.0237
     12    C       27.3670    4.8350    2.7110 C.3     2  LIG2       -0.0593
     13    C       26.7020    6.1560    4.7700 C.3     2  LIG2       -0.0593
     14    C       24.8400    1.2750    2.5740 C.3     2  LIG2       -0.0498
     15    C       24.0140    3.4690    3.5870 C.3     2  LIG2       -0.0621
     16    C       27.9630   -0.6130    5.0090 C.3     2  LIG2       -0.0358
     17    H       25.9790    3.8290    5.8590 H       2  LIG2        0.0312
     18    H       28.4040    4.4970    6.0590 H       2  LIG2        0.0309
     19    H       26.0930    1.5850    5.3550 H       2  LIG2        0.0310
     20    H       27.4630    2.0180    2.7420 H       2  LIG2        0.0331
     21    H       29.3510    3.1430    3.5250 H       2  LIG2        0.0269
     22    H       30.1670    3.4990    4.9960 H       2  LIG2        0.0269
     23    H       24.0830    1.5740    4.5500 H       2  LIG2        0.0301
     24    H       26.5070    0.1090    1.7990 H       2  LIG2        0.0269
     25    H       25.8590   -0.4540    3.3340 H       2  LIG2        0.0269
     26    H       30.1500    1.2290    5.2000 H       2  LIG2        0.0293
     27    H       28.7340    1.6380    6.0910 H       2  LIG2        0.0293
     28    H       28.0760    5.6250    2.4610 H       2  LIG2        0.0235
     29    H       26.4390    5.0700    2.1930 H       2  LIG2        0.0235
     30    H       27.7640    3.9400    2.2530 H       2  LIG2        0.0235
     31    H       27.4290    6.9320    4.5230 H       2  LIG2        0.0235
     32    H       26.5820    6.1660    5.8550 H       2  LIG2        0.0235
     33    H       25.7450    6.4440    4.3380 H       2  LIG2        0.0235
     34    H       23.9650    0.6440    2.4200 H       2  LIG2        0.0268
     35    H       24.9410    1.9100    1.6920 H       2  LIG2        0.0268
     36    H       24.5490    4.0740    2.8580 H       2  LIG2        0.0233
     37    H       23.9120    4.0540    4.5010 H       2  LIG2        0.0233
     38    H       23.0090    3.3090    3.1970 H       2  LIG2        0.0233
     39    H       27.2260   -0.4100    5.7880 H       2  LIG2        0.0257
     40    H       28.8490   -1.0180    5.4990 H       2  LIG2        0.0257
     41    H       27.5660   -1.4110    4.3810 H       2  LIG2        0.0257
     42    H       29.9690   -0.0650    3.5060 H       2  LIG2        0.2102
@<TRIPOS>BOND
     1    35    14    1
     2    24    10    1
     3    29    12    1
     4    30    12    1
     5    34    14    1
     6    28    12    1
     7    14    10    1
     8    14     8    1
     9    12     3    1
    10    20     6    1
    11    10    25    1
    12    10     6    1
    13    36    15    1
    14     1    42    1
    15     1     9    1
    16    38    15    1
    17     6     9    1
    18     6     5    1
    19    21     7    1
    20    15     8    1
    21    15    37    1
    22     8     5    1
    23     8    23    1
    24     9    16    1
    25     9    11    1
    26     3    13    1
    27     3     2    1
    28     3     4    1
    29    33    13    1
    30    41    16    1
    31     5     2    1
    32     5    19    1
    33    31    13    1
    34     7    22    1
    35     7    11    1
    36     7     4    1
    37    13    32    1
    38     2     4    1
    39     2    17    1
    40    16    40    1
    41    16    39    1
    42    11    26    1
    43    11    27    1
    44     4    18    1
@<TRIPOS>MOLECULE
11996452_10_run_11.pdb
 42 44 0 0 0
SMALL
GASTEIGER

@<TRIPOS>ATOM
      1    O       25.7850    4.3320    2.8550 O.3     2  LIG2       -0.3886
      2    C       26.9960    0.2990    4.6450 C.3     2  LIG2       -0.0289
      3    C       27.2630   -0.4790    3.3660 C.3     2  LIG2       -0.0284
      4    C       25.8590    0.0390    3.6320 C.3     2  LIG2       -0.0319
      5    C       27.4790    1.7360    5.0390 C.3     2  LIG2       -0.0294
      6    C       27.2650    2.9440    4.0870 C.3     2  LIG2       -0.0090
      7    C       25.2110    1.1950    2.8340 C.3     2  LIG2       -0.0468
      8    C       28.9320    1.8470    5.5930 C.3     2  LIG2       -0.0404
      9    C       25.7980    3.4870    3.9950 C.3     2  LIG2        0.0664
     10    C       28.3370    3.9570    4.5250 C.3     2  LIG2       -0.0471
     11    C       24.7490    2.3740    3.7140 C.3     2  LIG2       -0.0237
     12    C       28.0980    0.0410    2.1710 C.3     2  LIG2       -0.0593
     13    C       27.4770   -1.9940    3.5500 C.3     2  LIG2       -0.0593
     14    C       29.5310    3.1020    4.9370 C.3     2  LIG2       -0.0498
     15    C       29.8390    0.6130    5.4140 C.3     2  LIG2       -0.0621
     16    C       25.3320    4.3420    5.1980 C.3     2  LIG2       -0.0358
     17    H       26.9600   -0.3070    5.5520 H       2  LIG2        0.0312
     18    H       25.1160   -0.7210    3.8820 H       2  LIG2        0.0309
     19    H       26.8510    1.9670    5.9010 H       2  LIG2        0.0310
     20    H       27.5700    2.6530    3.0890 H       2  LIG2        0.0331
     21    H       25.8250    1.5460    2.0070 H       2  LIG2        0.0269
     22    H       24.3220    0.7860    2.3520 H       2  LIG2        0.0269
     23    H       28.8760    2.0350    6.6680 H       2  LIG2        0.0301
     24    H       28.5990    4.6500    3.7240 H       2  LIG2        0.0269
     25    H       28.0110    4.5520    5.3780 H       2  LIG2        0.0269
     26    H       23.8520    2.8160    3.2750 H       2  LIG2        0.0293
     27    H       24.4050    1.9580    4.6630 H       2  LIG2        0.0293
     28    H       27.8490   -0.5220    1.2710 H       2  LIG2        0.0235
     29    H       29.1640   -0.0990    2.3450 H       2  LIG2        0.0235
     30    H       27.9560    1.0790    1.9070 H       2  LIG2        0.0235
     31    H       27.2110   -2.5430    2.6450 H       2  LIG2        0.0235
     32    H       26.8720   -2.4030    4.3610 H       2  LIG2        0.0235
     33    H       28.5180   -2.2160    3.7830 H       2  LIG2        0.0235
     34    H       30.1890    3.6430    5.6170 H       2  LIG2        0.0268
     35    H       30.1210    2.8400    4.0570 H       2  LIG2        0.0268
     36    H       30.0000    0.3730    4.3650 H       2  LIG2        0.0233
     37    H       29.4190   -0.2680    5.9010 H       2  LIG2        0.0233
     38    H       30.8190    0.7850    5.8590 H       2  LIG2        0.0233
     39    H       25.4150    3.7930    6.1370 H       2  LIG2        0.0257
     40    H       24.2890    4.6440    5.0910 H       2  LIG2        0.0257
     41    H       25.9090    5.2600    5.3020 H       2  LIG2        0.0257
     42    H       26.3760    5.0710    3.0180 H       2  LIG2        0.2102
@<TRIPOS>BOND
     1    28    12    1
     2    30    12    1
     3    21     7    1
     4    12    29    1
     5    12     3    1
     6    22     7    1
     7    31    13    1
     8     7     4    1
     9     7    11    1
    10     1    42    1
    11     1     9    1
    12    20     6    1
    13    26    11    1
    14     3    13    1
    15     3     4    1
    16     3     2    1
    17    13    33    1
    18    13    32    1
    19     4    18    1
    20     4     2    1
    21    11     9    1
    22    11    27    1
    23    24    10    1
    24     9     6    1
    25     9    16    1
    26    35    14    1
    27     6    10    1
    28     6     5    1
    29    36    15    1
    30    10    14    1
    31    10    25    1
    32     2     5    1
    33     2    17    1
    34    14     8    1
    35    14    34    1
    36     5     8    1
    37     5    19    1
    38    40    16    1
    39    16    41    1
    40    16    39    1
    41    15     8    1
    42    15    38    1
    43    15    37    1
    44     8    23    1
@<TRIPOS>MOLECULE
11996452_10_run_16.pdb
 42 44 0 0 0
SMALL
GASTEIGER

@<TRIPOS>ATOM
      1    O       27.0900    3.8930    6.8640 O.3     2  LIG2       -0.3886
      2    C       27.9930    1.4330    3.1130 C.3     2  LIG2       -0.0289
      3    C       28.0750    0.0460    3.7300 C.3     2  LIG2       -0.0284
      4    C       29.0780    1.1030    4.1620 C.3     2  LIG2       -0.0319
      5    C       26.9070    2.5400    3.3260 C.3     2  LIG2       -0.0294
      6    C       26.4880    2.9900    4.7520 C.3     2  LIG2       -0.0090
      7    C       29.0730    1.7620    5.5610 C.3     2  LIG2       -0.0468
      8    C       25.5950    2.3870    2.4960 C.3     2  LIG2       -0.0404
      9    C       27.5210    3.8910    5.5120 C.3     2  LIG2        0.0664
     10    C       25.0830    3.5870    4.5570 C.3     2  LIG2       -0.0471
     11    C       28.9590    3.2990    5.5230 C.3     2  LIG2       -0.0237
     12    C       27.0480   -0.5410    4.7270 C.3     2  LIG2       -0.0593
     13    C       28.6080   -1.0590    2.7970 C.3     2  LIG2       -0.0593
     14    C       24.4500    2.7340    3.4620 C.3     2  LIG2       -0.0498
     15    C       25.3710    1.0310    1.7960 C.3     2  LIG2       -0.0621
     16    C       27.5760    5.3680    5.0520 C.3     2  LIG2       -0.0358
     17    H       28.3470    1.4990    2.0820 H       2  LIG2        0.0312
     18    H       30.1010    0.9530    3.8110 H       2  LIG2        0.0309
     19    H       27.3840    3.4240    2.9010 H       2  LIG2        0.0310
     20    H       26.3170    2.1080    5.3550 H       2  LIG2        0.0331
     21    H       28.3340    1.3360    6.2370 H       2  LIG2        0.0269
     22    H       30.0310    1.5220    6.0260 H       2  LIG2        0.0269
     23    H       25.5990    3.1440    1.7080 H       2  LIG2        0.0301
     24    H       24.4940    3.5610    5.4750 H       2  LIG2        0.0269
     25    H       25.1240    4.6240    4.2240 H       2  LIG2        0.0269
     26    H       29.5230    3.7200    6.3580 H       2  LIG2        0.0293
     27    H       29.4950    3.6440    4.6370 H       2  LIG2        0.0293
     28    H       27.4970   -1.3660    5.2810 H       2  LIG2        0.0235
     29    H       26.1810   -0.9470    4.2070 H       2  LIG2        0.0235
     30    H       26.6730    0.1370    5.4800 H       2  LIG2        0.0235
     31    H       29.0660   -1.8700    3.3670 H       2  LIG2        0.0235
     32    H       29.3660   -0.6880    2.1050 H       2  LIG2        0.0235
     33    H       27.8050   -1.4840    2.1960 H       2  LIG2        0.0235
     34    H       23.6420    3.2680    2.9610 H       2  LIG2        0.0268
     35    H       24.0200    1.8300    3.8980 H       2  LIG2        0.0268
     36    H       25.3020    0.2110    2.5080 H       2  LIG2        0.0233
     37    H       26.1760    0.8030    1.0970 H       2  LIG2        0.0233
     38    H       24.4440    1.0400    1.2230 H       2  LIG2        0.0233
     39    H       27.7990    5.4490    3.9870 H       2  LIG2        0.0257
     40    H       28.3480    5.9230    5.5870 H       2  LIG2        0.0257
     41    H       26.6380    5.8940    5.2330 H       2  LIG2        0.0257
     42    H       27.5410    4.6040    7.3260 H       2  LIG2        0.2102
@<TRIPOS>BOND
     1    37    15    1
     2    38    15    1
     3    23     8    1
     4    15     8    1
     5    15    36    1
     6    17     2    1
     7    32    13    1
     8    33    13    1
     9     8     5    1
    10     8    14    1
    11    13    31    1
    12    13     3    1
    13    19     5    1
    14    34    14    1
    15     2     5    1
    16     2     3    1
    17     2     4    1
    18     5     6    1
    19    14    35    1
    20    14    10    1
    21     3     4    1
    22     3    12    1
    23    18     4    1
    24    39    16    1
    25     4     7    1
    26    29    12    1
    27    25    10    1
    28    10     6    1
    29    10    24    1
    30    27    11    1
    31    12    28    1
    32    12    30    1
    33     6    20    1
    34     6     9    1
    35    16    41    1
    36    16     9    1
    37    16    40    1
    38     9    11    1
    39     9     1    1
    40    11     7    1
    41    11    26    1
    42     7    22    1
    43     7    21    1
    44     1    42    1
@<TRIPOS>MOLECULE
11996452_10_run_24.pdb
 42 44 0 0 0
SMALL
GASTEIGER

@<TRIPOS>ATOM
      1    O       24.8350    5.0250    5.8550 O.3     2  LIG2       -0.3886
      2    C       28.1130    2.7830    3.5810 C.3     2  LIG2       -0.0289
      3    C       28.7690    2.0470    4.7380 C.3     2  LIG2       -0.0284
      4    C       28.7900    3.5670    4.7270 C.3     2  LIG2       -0.0319
      5    C       26.5910    2.9150    3.2390 C.3     2  LIG2       -0.0294
      6    C       25.5640    3.3790    4.3070 C.3     2  LIG2       -0.0090
      7    C       27.9660    4.4380    5.7050 C.3     2  LIG2       -0.0468
      8    C       25.9470    1.7100    2.4850 C.3     2  LIG2       -0.0404
      9    C       25.5930    4.9050    4.6600 C.3     2  LIG2        0.0664
     10    C       24.2210    2.8260    3.7990 C.3     2  LIG2       -0.0471
     11    C       27.0160    5.4290    5.0030 C.3     2  LIG2       -0.0237
     12    C       28.0090    1.2620    5.8340 C.3     2  LIG2       -0.0593
     13    C       30.0990    1.3440    4.4010 C.3     2  LIG2       -0.0593
     14    C       24.5760    1.4940    3.1440 C.3     2  LIG2       -0.0498
     15    C       26.7720    0.4090    2.4250 C.3     2  LIG2       -0.0621
     16    C       24.9380    5.8400    3.6150 C.3     2  LIG2       -0.0358
     17    H       28.6700    2.7550    2.6430 H       2  LIG2        0.0312
     18    H       29.7620    4.0230    4.5300 H       2  LIG2        0.0309
     19    H       26.5830    3.7190    2.5010 H       2  LIG2        0.0310
     20    H       25.7460    2.8270    5.2210 H       2  LIG2        0.0331
     21    H       27.4350    3.8590    6.4570 H       2  LIG2        0.0269
     22    H       28.6810    5.0300    6.2790 H       2  LIG2        0.0269
     23    H       25.7690    2.0100    1.4490 H       2  LIG2        0.0301
     24    H       23.4980    2.6950    4.6060 H       2  LIG2        0.0269
     25    H       23.7670    3.4800    3.0550 H       2  LIG2        0.0269
     26    H       26.9390    6.3360    5.6050 H       2  LIG2        0.0293
     27    H       27.5070    5.7570    4.0850 H       2  LIG2        0.0293
     28    H       28.6440    1.1400    6.7120 H       2  LIG2        0.0235
     29    H       27.7490    0.2610    5.4920 H       2  LIG2        0.0235
     30    H       27.0990    1.7160    6.2000 H       2  LIG2        0.0235
     31    H       30.7270    1.2420    5.2880 H       2  LIG2        0.0235
     32    H       30.6820    1.8930    3.6590 H       2  LIG2        0.0235
     33    H       29.9230    0.3470    3.9990 H       2  LIG2        0.0235
     34    H       23.8180    1.1950    2.4200 H       2  LIG2        0.0268
     35    H       24.6260    0.7090    3.9030 H       2  LIG2        0.0268
     36    H       26.9610   -0.0010    3.4150 H       2  LIG2        0.0233
     37    H       27.7340    0.5660    1.9370 H       2  LIG2        0.0233
     38    H       26.2460   -0.3570    1.8550 H       2  LIG2        0.0233
     39    H       25.3990    5.7270    2.6320 H       2  LIG2        0.0257
     40    H       25.0370    6.8880    3.9000 H       2  LIG2        0.0257
     41    H       23.8710    5.6510    3.5000 H       2  LIG2        0.0257
     42    H       25.2630    4.5030    6.5390 H       2  LIG2        0.2102
@<TRIPOS>BOND
     1    23     8    1
     2    38    15    1
     3    37    15    1
     4    34    14    1
     5    15     8    1
     6    15    36    1
     7     8    14    1
     8     8     5    1
     9    19     5    1
    10    39    16    1
    11    17     2    1
    12    25    10    1
    13    14    10    1
    14    14    35    1
    15     5     2    1
    16     5     6    1
    17    41    16    1
    18     2     4    1
    19     2     3    1
    20    16    40    1
    21    16     9    1
    22    32    13    1
    23    10     6    1
    24    10    24    1
    25    33    13    1
    26    27    11    1
    27     6     9    1
    28     6    20    1
    29    13     3    1
    30    13    31    1
    31    18     4    1
    32     9    11    1
    33     9     1    1
    34     4     3    1
    35     4     7    1
    36     3    12    1
    37    11    26    1
    38    11     7    1
    39    29    12    1
    40     7    22    1
    41     7    21    1
    42    12    30    1
    43    12    28    1
    44     1    42    1
@<TRIPOS>MOLECULE
11996452_10_run_22.pdb
 42 44 0 0 0
SMALL
GASTEIGER

@<TRIPOS>ATOM
      1    O       24.8490    2.1430    1.9970 O.3     2  LIG2       -0.3886
      2    C       27.8450    1.3180    5.3560 C.3     2  LIG2       -0.0289
      3    C       29.0020    0.7670    4.5370 C.3     2  LIG2       -0.0284
      4    C       27.6820    0.0140    4.5430 C.3     2  LIG2       -0.0319
      5    C       26.9830    2.5990    5.0980 C.3     2  LIG2       -0.0294
      6    C       26.3200    2.8580    3.7180 C.3     2  LIG2       -0.0090
      7    C       26.7370   -0.0600    3.3200 C.3     2  LIG2       -0.0468
      8    C       27.6040    3.9530    5.5630 C.3     2  LIG2       -0.0404
      9    C       25.0660    1.9760    3.3900 C.3     2  LIG2        0.0664
     10    C       26.1040    4.3810    3.6880 C.3     2  LIG2       -0.0471
     11    C       25.3120    0.4560    3.6050 C.3     2  LIG2       -0.0237
     12    C       29.5550    1.4090    3.2410 C.3     2  LIG2       -0.0593
     13    C       30.1480    0.1410    5.3550 C.3     2  LIG2       -0.0593
     14    C       27.3030    4.9550    4.4370 C.3     2  LIG2       -0.0498
     15    C       29.0990    3.9370    5.9390 C.3     2  LIG2       -0.0621
     16    C       23.7590    2.3930    4.1050 C.3     2  LIG2       -0.0358
     17    H       27.9420    1.1850    6.4350 H       2  LIG2        0.0312
     18    H       27.6820   -0.9320    5.0880 H       2  LIG2        0.0309
     19    H       26.1370    2.4540    5.7730 H       2  LIG2        0.0310
     20    H       27.0570    2.6810    2.9450 H       2  LIG2        0.0331
     21    H       27.1470    0.4080    2.4280 H       2  LIG2        0.0269
     22    H       26.6500   -1.1140    3.0530 H       2  LIG2        0.0269
     23    H       27.0660    4.2880    6.4530 H       2  LIG2        0.0301
     24    H       26.0480    4.7680    2.6690 H       2  LIG2        0.0269
     25    H       25.1890    4.6730    4.2000 H       2  LIG2        0.0269
     26    H       24.5990   -0.1190    3.0110 H       2  LIG2        0.0293
     27    H       25.0720    0.1970    4.6370 H       2  LIG2        0.0293
     28    H       30.1120    0.6680    2.6680 H       2  LIG2        0.0235
     29    H       30.2470    2.2190    3.4670 H       2  LIG2        0.0235
     30    H       28.8200    1.8070    2.5560 H       2  LIG2        0.0235
     31    H       30.6870   -0.6070    4.7710 H       2  LIG2        0.0235
     32    H       29.7900   -0.3570    6.2580 H       2  LIG2        0.0235
     33    H       30.8640    0.9000    5.6690 H       2  LIG2        0.0235
     34    H       27.0870    5.9510    4.8250 H       2  LIG2        0.0268
     35    H       28.1540    5.0490    3.7600 H       2  LIG2        0.0268
     36    H       29.7290    3.6610    5.0970 H       2  LIG2        0.0233
     37    H       29.3010    3.2400    6.7530 H       2  LIG2        0.0233
     38    H       29.4240    4.9220    6.2750 H       2  LIG2        0.0233
     39    H       23.8770    2.3940    5.1900 H       2  LIG2        0.0257
     40    H       22.9420    1.7090    3.8700 H       2  LIG2        0.0257
     41    H       23.4230    3.3870    3.8100 H       2  LIG2        0.0257
     42    H       25.6300    1.8380    1.5290 H       2  LIG2        0.2102
@<TRIPOS>BOND
     1    42     1    1
     2     1     9    1
     3    21     7    1
     4    30    12    1
     5    28    12    1
     6    24    10    1
     7    20     6    1
     8    26    11    1
     9    22     7    1
    10    12    29    1
    11    12     3    1
    12     7    11    1
    13     7     4    1
    14     9    11    1
    15     9     6    1
    16     9    16    1
    17    11    27    1
    18    10     6    1
    19    10    25    1
    20    10    14    1
    21     6     5    1
    22    35    14    1
    23    41    16    1
    24    40    16    1
    25    16    39    1
    26    14    34    1
    27    14     8    1
    28     3     4    1
    29     3    13    1
    30     3     2    1
    31     4    18    1
    32     4     2    1
    33    31    13    1
    34    36    15    1
    35     5     2    1
    36     5     8    1
    37     5    19    1
    38    13    33    1
    39    13    32    1
    40     2    17    1
    41     8    15    1
    42     8    23    1
    43    15    38    1
    44    15    37    1
@<TRIPOS>MOLECULE
11996452_10_run_4.pdb
 42 44 0 0 0
SMALL
GASTEIGER

@<TRIPOS>ATOM
      1    O       28.8490    4.8250    3.9380 O.3     2  LIG2       -0.3886
      2    C       25.8360    1.4010    4.3050 C.3     2  LIG2       -0.0289
      3    C       25.2330    1.4410    2.9090 C.3     2  LIG2       -0.0284
      4    C       25.0690    2.6500    3.8150 C.3     2  LIG2       -0.0319
      5    C       27.3440    1.4350    4.7240 C.3     2  LIG2       -0.0294
      6    C       28.3050    2.5270    4.1820 C.3     2  LIG2       -0.0090
      7    C       25.7910    3.9970    3.5770 C.3     2  LIG2       -0.0468
      8    C       28.1110    0.0790    4.6480 C.3     2  LIG2       -0.0404
      9    C       28.1260    3.9570    4.7970 C.3     2  LIG2        0.0664
     10    C       29.7020    1.8980    4.3230 C.3     2  LIG2       -0.0471
     11    C       26.6540    4.4570    4.7690 C.3     2  LIG2       -0.0237
     12    C       26.0470    1.5250    1.5950 C.3     2  LIG2       -0.0593
     13    C       23.9820    0.5640    2.7080 C.3     2  LIG2       -0.0593
     14    C       29.4860    0.4130    4.0470 C.3     2  LIG2       -0.0498
     15    C       27.4140   -1.0700    3.8910 C.3     2  LIG2       -0.0621
     16    C       28.7060    4.1430    6.2200 C.3     2  LIG2       -0.0358
     17    H       25.2980    0.7750    5.0200 H       2  LIG2        0.0312
     18    H       24.0610    2.8160    4.2010 H       2  LIG2        0.0309
     19    H       27.2870    1.6430    5.7940 H       2  LIG2        0.0310
     20    H       28.1610    2.6100    3.1120 H       2  LIG2        0.0331
     21    H       26.3630    4.0240    2.6520 H       2  LIG2        0.0269
     22    H       25.0140    4.7500    3.4330 H       2  LIG2        0.0269
     23    H       28.2760   -0.2790    5.6670 H       2  LIG2        0.0301
     24    H       30.4210    2.3330    3.6260 H       2  LIG2        0.0269
     25    H       30.1040    2.0210    5.3270 H       2  LIG2        0.0269
     26    H       26.6350    5.5470    4.8230 H       2  LIG2        0.0293
     27    H       26.1490    4.1350    5.6810 H       2  LIG2        0.0293
     28    H       25.4130    1.8930    0.7890 H       2  LIG2        0.0235
     29    H       26.4060    0.5430    1.2910 H       2  LIG2        0.0235
     30    H       26.9040    2.1830    1.6080 H       2  LIG2        0.0235
     31    H       23.3520    0.9530    1.9060 H       2  LIG2        0.0235
     32    H       23.3620    0.5140    3.6050 H       2  LIG2        0.0235
     33    H       24.2580   -0.4590    2.4510 H       2  LIG2        0.0235
     34    H       30.2800   -0.1900    4.4870 H       2  LIG2        0.0268
     35    H       29.4980    0.2290    2.9710 H       2  LIG2        0.0268
     36    H       27.2480   -0.8290    2.8440 H       2  LIG2        0.0233
     37    H       26.4490   -1.3170    4.3360 H       2  LIG2        0.0233
     38    H       28.0190   -1.9770    3.9210 H       2  LIG2        0.0233
     39    H       28.2740    3.4310    6.9250 H       2  LIG2        0.0257
     40    H       28.5030    5.1430    6.6050 H       2  LIG2        0.0257
     41    H       29.7880    4.0160    6.2470 H       2  LIG2        0.0257
     42    H       29.7260    4.4580    3.8040 H       2  LIG2        0.2102
@<TRIPOS>BOND
     1    28    12    1
     2    29    12    1
     3    12    30    1
     4    12     3    1
     5    31    13    1
     6    33    13    1
     7    21     7    1
     8    13     3    1
     9    13    32    1
    10    36    15    1
    11     3     4    1
    12     3     2    1
    13    35    14    1
    14    20     6    1
    15    22     7    1
    16     7     4    1
    17     7    11    1
    18    24    10    1
    19    42     1    1
    20     4    18    1
    21     4     2    1
    22    15    38    1
    23    15    37    1
    24    15     8    1
    25     1     9    1
    26    14    10    1
    27    14    34    1
    28    14     8    1
    29     6    10    1
    30     6     5    1
    31     6     9    1
    32     2     5    1
    33     2    17    1
    34    10    25    1
    35     8     5    1
    36     8    23    1
    37     5    19    1
    38    11     9    1
    39    11    26    1
    40    11    27    1
    41     9    16    1
    42    16    41    1
    43    16    40    1
    44    16    39    1
@<TRIPOS>MOLECULE
11996452_10_run_24.pdb
 42 44 0 0 0
SMALL
GASTEIGER

@<TRIPOS>ATOM
      1    O       28.7080    0.3390    6.5770 O.3     2  LIG2       -0.3886
      2    C       26.6560    1.8150    2.7620 C.3     2  LIG2       -0.0289
      3    C       25.2130    1.4800    3.1030 C.3     2  LIG2       -0.0284
      4    C       26.2220    0.3500    2.9910 C.3     2  LIG2       -0.0319
      5    C       27.7310    2.5350    3.6450 C.3     2  LIG2       -0.0294
      6    C       28.0280    2.0640    5.0930 C.3     2  LIG2       -0.0090
      7    C       26.7320   -0.4610    4.2050 C.3     2  LIG2       -0.0468
      8    C       27.6610    4.0930    3.6810 C.3     2  LIG2       -0.0404
      9    C       28.8490    0.7340    5.2210 C.3     2  LIG2        0.0664
     10    C       28.6370    3.3030    5.7720 C.3     2  LIG2       -0.0471
     11    C       28.2640   -0.4310    4.3740 C.3     2  LIG2       -0.0237
     12    C       24.5200    1.8090    4.4470 C.3     2  LIG2       -0.0593
     13    C       24.2130    1.6190    1.9370 C.3     2  LIG2       -0.0593
     14    C       27.9000    4.4850    5.1480 C.3     2  LIG2       -0.0498
     15    C       26.3850    4.7430    3.1090 C.3     2  LIG2       -0.0621
     16    C       30.3660    0.8630    4.9430 C.3     2  LIG2       -0.0358
     17    H       26.8310    2.0920    1.7210 H       2  LIG2        0.0312
     18    H       26.1140   -0.2940    2.1160 H       2  LIG2        0.0309
     19    H       28.6570    2.3270    3.1050 H       2  LIG2        0.0310
     20    H       27.0870    1.9180    5.6080 H       2  LIG2        0.0331
     21    H       26.2350   -0.2020    5.1380 H       2  LIG2        0.0269
     22    H       26.4480   -1.5010    4.0320 H       2  LIG2        0.0269
     23    H       28.4960    4.4870    3.0960 H       2  LIG2        0.0301
     24    H       28.5130    3.2820    6.8550 H       2  LIG2        0.0269
     25    H       29.7030    3.3980    5.5660 H       2  LIG2        0.0269
     26    H       28.5970   -1.3860    4.7830 H       2  LIG2        0.0293
     27    H       28.7010   -0.4010    3.3740 H       2  LIG2        0.0293
     28    H       23.6440    1.1740    4.5790 H       2  LIG2        0.0235
     29    H       24.1680    2.8390    4.4670 H       2  LIG2        0.0235
     30    H       25.1160    1.6630    5.3370 H       2  LIG2        0.0235
     31    H       23.3490    0.9680    2.0790 H       2  LIG2        0.0235
     32    H       24.6570    1.3550    0.9760 H       2  LIG2        0.0235
     33    H       23.8500    2.6430    1.8540 H       2  LIG2        0.0235
     34    H       28.4810    5.4040    5.2350 H       2  LIG2        0.0268
     35    H       26.9540    4.6490    5.6680 H       2  LIG2        0.0268
     36    H       25.4950    4.4500    3.6620 H       2  LIG2        0.0233
     37    H       26.2340    4.4780    2.0620 H       2  LIG2        0.0233
     38    H       26.4500    5.8300    3.1570 H       2  LIG2        0.0233
     39    H       30.5580    1.2670    3.9480 H       2  LIG2        0.0257
     40    H       30.8640   -0.1060    5.0010 H       2  LIG2        0.0257
     41    H       30.8660    1.5100    5.6630 H       2  LIG2        0.0257
     42    H       29.2830   -0.4140    6.7360 H       2  LIG2        0.2102
@<TRIPOS>BOND
     1    32    13    1
     2    17     2    1
     3    33    13    1
     4    13    31    1
     5    13     3    1
     6    37    15    1
     7    18     4    1
     8     2     4    1
     9     2     3    1
    10     2     5    1
    11     4     3    1
    12     4     7    1
    13    23     8    1
    14     3    12    1
    15    19     5    1
    16    15    38    1
    17    15    36    1
    18    15     8    1
    19    27    11    1
    20     5     8    1
    21     5     6    1
    22     8    14    1
    23    39    16    1
    24    22     7    1
    25     7    11    1
    26     7    21    1
    27    11    26    1
    28    11     9    1
    29    12    29    1
    30    12    28    1
    31    12    30    1
    32    16    40    1
    33    16     9    1
    34    16    41    1
    35     6     9    1
    36     6    20    1
    37     6    10    1
    38    14    34    1
    39    14    35    1
    40    14    10    1
    41     9     1    1
    42    25    10    1
    43    10    24    1
    44     1    42    1
@<TRIPOS>MOLECULE
11996452_10_run_14.pdb
 42 44 0 0 0
SMALL
GASTEIGER

@<TRIPOS>ATOM
      1    O       24.0590    6.2450    2.7780 O.3     2  LIG2       -0.3886
      2    C       25.9980    2.6100    4.7690 C.3     2  LIG2       -0.0289
      3    C       25.6050    1.5320    3.7720 C.3     2  LIG2       -0.0284
      4    C       24.5110    2.2710    4.5230 C.3     2  LIG2       -0.0319
      5    C       26.6090    4.0250    4.4950 C.3     2  LIG2       -0.0294
      6    C       25.9550    4.9990    3.4790 C.3     2  LIG2       -0.0090
      7    C       23.5540    3.2860    3.8550 C.3     2  LIG2       -0.0468
      8    C       28.1480    4.0750    4.2450 C.3     2  LIG2       -0.0404
      9    C       24.6300    5.6890    3.9530 C.3     2  LIG2        0.0664
     10    C       27.1020    5.9420    3.0740 C.3     2  LIG2       -0.0471
     11    C       23.5800    4.6840    4.5040 C.3     2  LIG2       -0.0237
     12    C       25.7480    1.6530    2.2350 C.3     2  LIG2       -0.0593
     13    C       25.8850    0.0850    4.2230 C.3     2  LIG2       -0.0593
     14    C       28.3470    5.0590    3.0810 C.3     2  LIG2       -0.0498
     15    C       28.8530    2.7270    3.9890 C.3     2  LIG2       -0.0621
     16    C       24.8110    6.8490    4.9600 C.3     2  LIG2       -0.0358
     17    H       26.4120    2.2380    5.7080 H       2  LIG2        0.0312
     18    H       23.9860    1.6900    5.2840 H       2  LIG2        0.0309
     19    H       26.4840    4.5260    5.4570 H       2  LIG2        0.0310
     20    H       25.7330    4.4510    2.5720 H       2  LIG2        0.0331
     21    H       23.6830    3.3570    2.7770 H       2  LIG2        0.0269
     22    H       22.5430    2.8930    3.9770 H       2  LIG2        0.0269
     23    H       28.6240    4.5100    5.1270 H       2  LIG2        0.0301
     24    H       26.9380    6.3930    2.0940 H       2  LIG2        0.0269
     25    H       27.2350    6.7520    3.7900 H       2  LIG2        0.0269
     26    H       22.5820    5.1240    4.4430 H       2  LIG2        0.0293
     27    H       23.7450    4.5440    5.5740 H       2  LIG2        0.0293
     28    H       25.0910    0.9350    1.7430 H       2  LIG2        0.0235
     29    H       26.7620    1.4220    1.9140 H       2  LIG2        0.0235
     30    H       25.4930    2.6120    1.8080 H       2  LIG2        0.0235
     31    H       25.2110   -0.6190    3.7310 H       2  LIG2        0.0235
     32    H       25.7550   -0.0470    5.2980 H       2  LIG2        0.0235
     33    H       26.9070   -0.2090    3.9840 H       2  LIG2        0.0235
     34    H       29.2530    5.6540    3.2000 H       2  LIG2        0.0268
     35    H       28.4310    4.5290    2.1300 H       2  LIG2        0.0268
     36    H       28.4800    2.2340    3.0940 H       2  LIG2        0.0233
     37    H       28.7260    2.0430    4.8290 H       2  LIG2        0.0233
     38    H       29.9250    2.8710    3.8550 H       2  LIG2        0.0233
     39    H       25.3440    6.5240    5.8550 H       2  LIG2        0.0257
     40    H       23.8490    7.2490    5.2840 H       2  LIG2        0.0257
     41    H       25.3640    7.6860    4.5340 H       2  LIG2        0.0257
     42    H       24.6690    6.8960    2.4230 H       2  LIG2        0.2102
@<TRIPOS>BOND
     1    28    12    1
     2    30    12    1
     3    29    12    1
     4    24    10    1
     5    35    14    1
     6    12     3    1
     7    42     1    1
     8    20     6    1
     9    21     7    1
    10     1     9    1
    11    10    14    1
    12    10     6    1
    13    10    25    1
    14    14    34    1
    15    14     8    1
    16    36    15    1
    17     6     9    1
    18     6     5    1
    19    31    13    1
    20     3    13    1
    21     3     4    1
    22     3     2    1
    23     7    22    1
    24     7    11    1
    25     7     4    1
    26    38    15    1
    27     9    11    1
    28     9    16    1
    29    33    13    1
    30    15     8    1
    31    15    37    1
    32    13    32    1
    33     8     5    1
    34     8    23    1
    35    26    11    1
    36     5     2    1
    37     5    19    1
    38    11    27    1
    39     4     2    1
    40     4    18    1
    41    41    16    1
    42     2    17    1
    43    16    40    1
    44    16    39    1
@<TRIPOS>MOLECULE
11996452_10_run_10.pdb
 42 44 0 0 0
SMALL
GASTEIGER

@<TRIPOS>ATOM
      1    O       28.2270   -1.3070    2.7810 O.3     2  LIG2       -0.3886
      2    C       27.1990    2.1310    5.6210 C.3     2  LIG2       -0.0289
      3    C       28.4510    2.9790    5.4600 C.3     2  LIG2       -0.0284
      4    C       28.5810    1.5780    6.0360 C.3     2  LIG2       -0.0319
      5    C       26.3120    1.4710    4.5120 C.3     2  LIG2       -0.0294
      6    C       26.9410    0.5910    3.3980 C.3     2  LIG2       -0.0090
      7    C       29.2390    0.4020    5.2770 C.3     2  LIG2       -0.0468
      8    C       25.2680    2.4000    3.8200 C.3     2  LIG2       -0.0404
      9    C       27.4090   -0.8370    3.8420 C.3     2  LIG2        0.0664
     10    C       25.9110    0.6420    2.2560 C.3     2  LIG2       -0.0471
     11    C       28.3150   -0.8200    5.1050 C.3     2  LIG2       -0.0237
     12    C       29.0990    3.3540    4.1050 C.3     2  LIG2       -0.0593
     13    C       28.5900    4.1430    6.4600 C.3     2  LIG2       -0.0593
     14    C       25.3300    2.0520    2.3240 C.3     2  LIG2       -0.0498
     15    C       25.4170    3.9150    4.0680 C.3     2  LIG2       -0.0621
     16    C       26.2770   -1.8750    4.0330 C.3     2  LIG2       -0.0358
     17    H       26.5480    2.4260    6.4460 H       2  LIG2        0.0312
     18    H       28.8120    1.5260    7.1010 H       2  LIG2        0.0309
     19    H       25.7010    0.7710    5.0850 H       2  LIG2        0.0310
     20    H       27.8030    1.1090    2.9970 H       2  LIG2        0.0331
     21    H       29.6760    0.6930    4.3240 H       2  LIG2        0.0269
     22    H       30.0920    0.0790    5.8750 H       2  LIG2        0.0269
     23    H       24.2740    2.1260    4.1800 H       2  LIG2        0.0301
     24    H       26.3640    0.4440    1.2840 H       2  LIG2        0.0269
     25    H       25.1090   -0.0820    2.3980 H       2  LIG2        0.0269
     26    H       28.9180   -1.7300    5.1370 H       2  LIG2        0.0293
     27    H       27.6880   -0.8830    5.9960 H       2  LIG2        0.0293
     28    H       30.1390    3.6420    4.2580 H       2  LIG2        0.0235
     29    H       28.5990    4.2080    3.6520 H       2  LIG2        0.0235
     30    H       29.1260    2.5730    3.3580 H       2  LIG2        0.0235
     31    H       29.6380    4.4100    6.6110 H       2  LIG2        0.0235
     32    H       28.1790    3.8990    7.4410 H       2  LIG2        0.0235
     33    H       28.0660    5.0290    6.1040 H       2  LIG2        0.0235
     34    H       24.3470    2.0980    1.8540 H       2  LIG2        0.0268
     35    H       25.9780    2.7470    1.7870 H       2  LIG2        0.0268
     36    H       26.3640    4.2990    3.6950 H       2  LIG2        0.0233
     37    H       25.3500    4.1570    5.1290 H       2  LIG2        0.0233
     38    H       24.6240    4.4690    3.5640 H       2  LIG2        0.0233
     39    H       25.5410   -1.5360    4.7630 H       2  LIG2        0.0257
     40    H       26.6690   -2.8290    4.3890 H       2  LIG2        0.0257
     41    H       25.7470   -2.0870    3.1050 H       2  LIG2        0.0257
     42    H       27.6710   -1.4570    2.0130 H       2  LIG2        0.2102
@<TRIPOS>BOND
     1    24    10    1
     2    35    14    1
     3    34    14    1
     4    42     1    1
     5    10    14    1
     6    10    25    1
     7    10     6    1
     8    14     8    1
     9     1     9    1
    10    20     6    1
    11    41    16    1
    12    30    12    1
    13     6     9    1
    14     6     5    1
    15    38    15    1
    16    29    12    1
    17    36    15    1
    18     8    15    1
    19     8    23    1
    20     8     5    1
    21     9    16    1
    22     9    11    1
    23    16    40    1
    24    16    39    1
    25    15    37    1
    26    12    28    1
    27    12     3    1
    28    21     7    1
    29     5    19    1
    30     5     2    1
    31    11    26    1
    32    11     7    1
    33    11    27    1
    34     7    22    1
    35     7     4    1
    36     3     2    1
    37     3     4    1
    38     3    13    1
    39     2     4    1
    40     2    17    1
    41     4    18    1
    42    33    13    1
    43    13    31    1
    44    13    32    1
