@<TRIPOS>MOLECULE
11996452_2_run_22.pdb
 42 44 0 0 0
SMALL
GASTEIGER

@<TRIPOS>ATOM
      1    O       26.9840    3.7150    6.6050 O.3     2  LIG2       -0.3886
      2    C       28.0550    0.8600    3.1740 C.3     2  LIG2       -0.0289
      3    C       28.1540   -0.4900    3.8620 C.3     2  LIG2       -0.0284
      4    C       29.0940    0.6210    4.2920 C.3     2  LIG2       -0.0319
      5    C       26.8720    1.8750    3.2880 C.3     2  LIG2       -0.0294
      6    C       26.4580    2.5000    4.6430 C.3     2  LIG2       -0.0090
      7    C       28.9960    1.3600    5.6440 C.3     2  LIG2       -0.0468
      8    C       25.5600    1.3420    2.6670 C.3     2  LIG2       -0.0404
      9    C       27.4820    3.4930    5.2950 C.3     2  LIG2        0.0664
     10    C       25.0580    3.0750    4.3470 C.3     2  LIG2       -0.0471
     11    C       28.9040    2.8890    5.4790 C.3     2  LIG2       -0.0237
     12    C       27.0670   -1.0430    4.8110 C.3     2  LIG2       -0.0593
     13    C       28.7720   -1.6250    3.0220 C.3     2  LIG2       -0.0593
     14    C       24.4130    2.1260    3.3330 C.3     2  LIG2       -0.0498
     15    C       25.5330    1.3930    1.1280 C.3     2  LIG2       -0.0621
     16    C       27.5950    4.8760    4.6090 C.3     2  LIG2       -0.0358
     17    H       28.4470    0.8910    2.1570 H       2  LIG2        0.0312
     18    H       30.1370    0.4870    4.0020 H       2  LIG2        0.0309
     19    H       27.1780    2.7280    2.6790 H       2  LIG2        0.0310
     20    H       26.2780    1.7010    5.3550 H       2  LIG2        0.0331
     21    H       28.2040    0.9820    6.2870 H       2  LIG2        0.0269
     22    H       29.9150    1.1450    6.1900 H       2  LIG2        0.0269
     23    H       25.4360    0.2980    2.9550 H       2  LIG2        0.0301
     24    H       24.4530    3.1570    5.2520 H       2  LIG2        0.0269
     25    H       25.1140    4.0710    3.9090 H       2  LIG2        0.0269
     26    H       29.4060    3.3690    6.3230 H       2  LIG2        0.0293
     27    H       29.5230    3.1600    4.6210 H       2  LIG2        0.0293
     28    H       27.4920   -1.7970    5.4740 H       2  LIG2        0.0235
     29    H       26.2680   -1.5230    4.2460 H       2  LIG2        0.0235
     30    H       26.5980   -0.3090    5.4530 H       2  LIG2        0.0235
     31    H       29.2170   -2.3900    3.6600 H       2  LIG2        0.0235
     32    H       29.5570   -1.2660    2.3550 H       2  LIG2        0.0235
     33    H       28.0160   -2.1060    2.4000 H       2  LIG2        0.0235
     34    H       23.8090    2.6790    2.6130 H       2  LIG2        0.0268
     35    H       23.7390    1.4370    3.8430 H       2  LIG2        0.0268
     36    H       25.6350    2.4150    0.7610 H       2  LIG2        0.0233
     37    H       24.5970    0.9920    0.7390 H       2  LIG2        0.0233
     38    H       26.3440    0.8030    0.6990 H       2  LIG2        0.0233
     39    H       27.8820    4.7820    3.5610 H       2  LIG2        0.0257
     40    H       28.3490    5.4980    5.0940 H       2  LIG2        0.0257
     41    H       26.6640    5.4400    4.6470 H       2  LIG2        0.0257
     42    H       27.4720    4.4430    6.9970 H       2  LIG2        0.2102
@<TRIPOS>BOND
     1    38    15    1
     2    37    15    1
     3    36    15    1
     4    15     8    1
     5    17     2    1
     6    32    13    1
     7    33    13    1
     8    34    14    1
     9     8    23    1
    10     8     5    1
    11     8    14    1
    12    19     5    1
    13    13    31    1
    14    13     3    1
    15     2     5    1
    16     2     3    1
    17     2     4    1
    18     5     6    1
    19    14    35    1
    20    14    10    1
    21    39    16    1
    22     3     4    1
    23     3    12    1
    24    25    10    1
    25    18     4    1
    26    29    12    1
    27     4     7    1
    28    10     6    1
    29    10    24    1
    30    16    41    1
    31    16    40    1
    32    16     9    1
    33    27    11    1
    34     6     9    1
    35     6    20    1
    36    12    30    1
    37    12    28    1
    38     9    11    1
    39     9     1    1
    40    11     7    1
    41    11    26    1
    42     7    22    1
    43     7    21    1
    44     1    42    1
@<TRIPOS>MOLECULE
11996452_2_run_21.pdb
 42 44 0 0 0
SMALL
GASTEIGER

@<TRIPOS>ATOM
      1    O       29.2610   -0.0830    3.3420 O.3     2  LIG2       -0.3886
      2    C       26.8870    3.5530    4.8300 C.3     2  LIG2       -0.0289
      3    C       27.5610    4.7200    4.1280 C.3     2  LIG2       -0.0284
      4    C       28.3800    3.8650    5.0770 C.3     2  LIG2       -0.0319
      5    C       26.3720    2.2390    4.1600 C.3     2  LIG2       -0.0294
      6    C       27.3240    1.2770    3.4070 C.3     2  LIG2       -0.0090
      7    C       29.4850    2.8880    4.6230 C.3     2  LIG2       -0.0468
      8    C       25.1890    2.4790    3.1940 C.3     2  LIG2       -0.0404
      9    C       28.3810    0.5150    4.2810 C.3     2  LIG2        0.0664
     10    C       26.3560    0.3900    2.5980 C.3     2  LIG2       -0.0471
     11    C       29.2650    1.4560    5.1500 C.3     2  LIG2       -0.0237
     12    C       27.8490    4.7470    2.6110 C.3     2  LIG2       -0.0593
     13    C       27.1670    6.1210    4.6340 C.3     2  LIG2       -0.0593
     14    C       25.1750    1.2880    2.2170 C.3     2  LIG2       -0.0498
     15    C       23.8430    2.7140    3.9040 C.3     2  LIG2       -0.0621
     16    C       27.8150   -0.6210    5.1670 C.3     2  LIG2       -0.0358
     17    H       26.2030    3.8290    5.6330 H       2  LIG2        0.0312
     18    H       28.6550    4.3450    6.0180 H       2  LIG2        0.0309
     19    H       25.9810    1.6410    4.9840 H       2  LIG2        0.0310
     20    H       27.8670    1.8410    2.6550 H       2  LIG2        0.0331
     21    H       29.6540    2.8930    3.5480 H       2  LIG2        0.0269
     22    H       30.4230    3.2500    5.0470 H       2  LIG2        0.0269
     23    H       25.3980    3.3700    2.6000 H       2  LIG2        0.0301
     24    H       26.8350   -0.0310    1.7120 H       2  LIG2        0.0269
     25    H       25.9850   -0.4450    3.1890 H       2  LIG2        0.0269
     26    H       30.2360    0.9910    5.3330 H       2  LIG2        0.0293
     27    H       28.8260    1.5420    6.1460 H       2  LIG2        0.0293
     28    H       28.6510    5.4520    2.3910 H       2  LIG2        0.0235
     29    H       26.9700    5.0750    2.0560 H       2  LIG2        0.0235
     30    H       28.1540    3.8020    2.1820 H       2  LIG2        0.0235
     31    H       27.9570    6.8470    4.4380 H       2  LIG2        0.0235
     32    H       26.9750    6.1360    5.7070 H       2  LIG2        0.0235
     33    H       26.2600    6.4740    4.1400 H       2  LIG2        0.0235
     34    H       24.2380    0.7310    2.2480 H       2  LIG2        0.0268
     35    H       25.2930    1.6450    1.1930 H       2  LIG2        0.0268
     36    H       23.5550    1.8530    4.5070 H       2  LIG2        0.0233
     37    H       23.0460    2.8960    3.1820 H       2  LIG2        0.0233
     38    H       23.8900    3.5830    4.5630 H       2  LIG2        0.0233
     39    H       27.0540   -0.2520    5.8550 H       2  LIG2        0.0257
     40    H       28.5990   -1.0800    5.7710 H       2  LIG2        0.0257
     41    H       27.3700   -1.4260    4.5820 H       2  LIG2        0.0257
     42    H       29.7850    0.6090    2.9330 H       2  LIG2        0.2102
@<TRIPOS>BOND
     1    35    14    1
     2    24    10    1
     3    29    12    1
     4    30    12    1
     5    14    34    1
     6    14    10    1
     7    14     8    1
     8    28    12    1
     9    10    25    1
    10    10     6    1
    11    23     8    1
    12    12     3    1
    13    20     6    1
    14    42     1    1
    15    37    15    1
    16     8    15    1
    17     8     5    1
    18     1     9    1
    19     6     5    1
    20     6     9    1
    21    21     7    1
    22    15    36    1
    23    15    38    1
    24     3    13    1
    25     3     2    1
    26     3     4    1
    27    33    13    1
    28     5     2    1
    29     5    19    1
    30     9    11    1
    31     9    16    1
    32    31    13    1
    33    41    16    1
    34     7    22    1
    35     7     4    1
    36     7    11    1
    37    13    32    1
    38     2     4    1
    39     2    17    1
    40     4    18    1
    41    11    26    1
    42    11    27    1
    43    16    40    1
    44    16    39    1
@<TRIPOS>MOLECULE
11996452_2_run_22.pdb
 42 44 0 0 0
SMALL
GASTEIGER

@<TRIPOS>ATOM
      1    O       27.3150   -0.1530    4.7130 O.3     2  LIG2       -0.3886
      2    C       25.4640    3.8490    3.4380 C.3     2  LIG2       -0.0289
      3    C       24.3490    4.0560    4.4490 C.3     2  LIG2       -0.0284
      4    C       24.3020    2.8380    3.5470 C.3     2  LIG2       -0.0319
      5    C       26.9540    3.5020    3.7570 C.3     2  LIG2       -0.0294
      6    C       27.3490    2.2050    4.5050 C.3     2  LIG2       -0.0090
      7    C       24.5460    1.3920    4.0330 C.3     2  LIG2       -0.0468
      8    C       27.6920    4.6410    4.4980 C.3     2  LIG2       -0.0404
      9    C       27.1130    0.8580    3.7370 C.3     2  LIG2        0.0664
     10    C       28.8020    2.4840    4.9410 C.3     2  LIG2       -0.0471
     11    C       25.6510    0.6750    3.2350 C.3     2  LIG2       -0.0237
     12    C       24.5510    3.9250    5.9750 C.3     2  LIG2       -0.0593
     13    C       23.3550    5.1880    4.1260 C.3     2  LIG2       -0.0593
     14    C       28.8770    3.9860    5.2320 C.3     2  LIG2       -0.0498
     15    C       28.0990    5.8150    3.5890 C.3     2  LIG2       -0.0621
     16    C       28.0950    0.5740    2.5750 C.3     2  LIG2       -0.0358
     17    H       25.4360    4.5170    2.5760 H       2  LIG2        0.0312
     18    H       23.5300    2.8570    2.7760 H       2  LIG2        0.0309
     19    H       27.4320    3.4080    2.7810 H       2  LIG2        0.0310
     20    H       26.7910    2.1540    5.4340 H       2  LIG2        0.0331
     21    H       24.7200    1.3200    5.1050 H       2  LIG2        0.0269
     22    H       23.6180    0.8420    3.8720 H       2  LIG2        0.0269
     23    H       27.0300    5.0440    5.2660 H       2  LIG2        0.0301
     24    H       29.0820    1.8970    5.8180 H       2  LIG2        0.0269
     25    H       29.5140    2.2430    4.1540 H       2  LIG2        0.0269
     26    H       25.4100   -0.3880    3.1690 H       2  LIG2        0.0293
     27    H       25.5810    1.0220    2.2020 H       2  LIG2        0.0293
     28    H       23.5990    3.7250    6.4670 H       2  LIG2        0.0235
     29    H       24.9420    4.8520    6.3950 H       2  LIG2        0.0235
     30    H       25.2220    3.1350    6.2860 H       2  LIG2        0.0235
     31    H       22.3870    5.0070    4.5950 H       2  LIG2        0.0235
     32    H       23.1790    5.2910    3.0550 H       2  LIG2        0.0235
     33    H       23.7270    6.1490    4.4850 H       2  LIG2        0.0235
     34    H       29.8400    4.3930    4.9220 H       2  LIG2        0.0268
     35    H       28.7940    4.1620    6.3050 H       2  LIG2        0.0268
     36    H       28.7800    5.4920    2.8010 H       2  LIG2        0.0233
     37    H       28.5990    6.5970    4.1600 H       2  LIG2        0.0233
     38    H       27.2270    6.2660    3.1120 H       2  LIG2        0.0233
     39    H       28.0680    1.3650    1.8240 H       2  LIG2        0.0257
     40    H       27.8480   -0.3600    2.0670 H       2  LIG2        0.0257
     41    H       29.1260    0.4740    2.9130 H       2  LIG2        0.0257
     42    H       26.6620   -0.0390    5.4080 H       2  LIG2        0.2102
@<TRIPOS>BOND
     1    39    16    1
     2    40    16    1
     3    27    11    1
     4    16    41    1
     5    16     9    1
     6    17     2    1
     7    18     4    1
     8    19     5    1
     9    36    15    1
    10    32    13    1
    11    38    15    1
    12    26    11    1
    13    11     9    1
    14    11     7    1
    15     2     4    1
    16     2     5    1
    17     2     3    1
    18     4     7    1
    19     4     3    1
    20    15    37    1
    21    15     8    1
    22     9     6    1
    23     9     1    1
    24     5     8    1
    25     5     6    1
    26    22     7    1
    27     7    21    1
    28    13     3    1
    29    13    33    1
    30    13    31    1
    31    25    10    1
    32     3    12    1
    33     8    14    1
    34     8    23    1
    35     6    10    1
    36     6    20    1
    37     1    42    1
    38    34    14    1
    39    10    14    1
    40    10    24    1
    41    14    35    1
    42    12    30    1
    43    12    29    1
    44    12    28    1
@<TRIPOS>MOLECULE
11996452_2_run_7.pdb
 42 44 0 0 0
SMALL
GASTEIGER

@<TRIPOS>ATOM
      1    O       23.8330    4.2800    3.1070 O.3     2  LIG2       -0.3886
      2    C       27.0040    1.3340    4.6340 C.3     2  LIG2       -0.0289
      3    C       27.1970    0.3900    3.4600 C.3     2  LIG2       -0.0284
      4    C       25.8270    0.4850    4.1050 C.3     2  LIG2       -0.0319
      5    C       27.0420    2.8950    4.5850 C.3     2  LIG2       -0.0294
      6    C       26.0460    3.7120    3.7250 C.3     2  LIG2       -0.0090
      7    C       24.6020    1.1470    3.4380 C.3     2  LIG2       -0.0468
      8    C       28.4400    3.4530    4.2290 C.3     2  LIG2       -0.0404
      9    C       24.5450    3.6800    4.1780 C.3     2  LIG2        0.0664
     10    C       26.7010    5.1060    3.6640 C.3     2  LIG2       -0.0471
     11    C       23.9660    2.2410    4.3170 C.3     2  LIG2       -0.0237
     12    C       27.4450    0.8720    2.0130 C.3     2  LIG2       -0.0593
     13    C       28.0070   -0.8880    3.7550 C.3     2  LIG2       -0.0593
     14    C       28.2130    4.8670    3.6620 C.3     2  LIG2       -0.0498
     15    C       29.4450    3.4050    5.3940 C.3     2  LIG2       -0.0621
     16    C       24.2190    4.4900    5.4550 C.3     2  LIG2       -0.0358
     17    H       27.4480    1.0010    5.5730 H       2  LIG2        0.0312
     18    H       25.5230   -0.3880    4.6850 H       2  LIG2        0.0309
     19    H       26.8360    3.2110    5.6090 H       2  LIG2        0.0310
     20    H       26.0880    3.3470    2.7030 H       2  LIG2        0.0331
     21    H       24.8020    1.5120    2.4320 H       2  LIG2        0.0269
     22    H       23.8550    0.3650    3.2990 H       2  LIG2        0.0269
     23    H       28.8590    2.8530    3.4200 H       2  LIG2        0.0301
     24    H       26.3870    5.6640    2.7790 H       2  LIG2        0.0269
     25    H       26.4430    5.7120    4.5310 H       2  LIG2        0.0269
     26    H       22.8880    2.2560    4.1430 H       2  LIG2        0.0293
     27    H       24.0580    1.9170    5.3550 H       2  LIG2        0.0293
     28    H       27.1690    0.0930    1.3020 H       2  LIG2        0.0235
     29    H       28.5010    1.0930    1.8550 H       2  LIG2        0.0235
     30    H       26.8930    1.7550    1.7200 H       2  LIG2        0.0235
     31    H       27.7420   -1.6900    3.0660 H       2  LIG2        0.0235
     32    H       27.8370   -1.2620    4.7650 H       2  LIG2        0.0235
     33    H       29.0780   -0.7020    3.6570 H       2  LIG2        0.0235
     34    H       28.7290    5.6370    4.2370 H       2  LIG2        0.0268
     35    H       28.5990    4.9260    2.6440 H       2  LIG2        0.0268
     36    H       29.1020    4.0010    6.2410 H       2  LIG2        0.0233
     37    H       30.4180    3.7920    5.0880 H       2  LIG2        0.0233
     38    H       29.5960    2.3830    5.7450 H       2  LIG2        0.0233
     39    H       24.8050    4.1480    6.3090 H       2  LIG2        0.0257
     40    H       23.1670    4.3930    5.7280 H       2  LIG2        0.0257
     41    H       24.4050    5.5570    5.3330 H       2  LIG2        0.0257
     42    H       22.9030    4.3170    3.3420 H       2  LIG2        0.2102
@<TRIPOS>BOND
     1    28    12    1
     2    30    12    1
     3    29    12    1
     4    12     3    1
     5    21     7    1
     6    35    14    1
     7    20     6    1
     8    24    10    1
     9    31    13    1
    10     1    42    1
    11     1     9    1
    12    22     7    1
    13    23     8    1
    14     7     4    1
    15     7    11    1
    16     3    13    1
    17     3     4    1
    18     3     2    1
    19    33    13    1
    20    14    10    1
    21    14     8    1
    22    14    34    1
    23    10     6    1
    24    10    25    1
    25     6     9    1
    26     6     5    1
    27    13    32    1
    28     4     2    1
    29     4    18    1
    30    26    11    1
    31     9    11    1
    32     9    16    1
    33     8     5    1
    34     8    15    1
    35    11    27    1
    36     5     2    1
    37     5    19    1
    38     2    17    1
    39    37    15    1
    40    41    16    1
    41    15    38    1
    42    15    36    1
    43    16    40    1
    44    16    39    1
@<TRIPOS>MOLECULE
11996452_2_run_6.pdb
 42 44 0 0 0
SMALL
GASTEIGER

@<TRIPOS>ATOM
      1    O       25.3910    5.8430    5.6180 O.3     2  LIG2       -0.3886
      2    C       28.0800    2.7400    3.5670 C.3     2  LIG2       -0.0289
      3    C       28.6570    1.9540    4.7320 C.3     2  LIG2       -0.0284
      4    C       28.9460    3.4410    4.6370 C.3     2  LIG2       -0.0319
      5    C       26.5710    3.0620    3.3220 C.3     2  LIG2       -0.0294
      6    C       25.7350    3.8860    4.3320 C.3     2  LIG2       -0.0090
      7    C       28.3420    4.5010    5.5840 C.3     2  LIG2       -0.0468
      8    C       25.7260    1.8000    3.0280 C.3     2  LIG2       -0.0404
      9    C       26.1180    5.4000    4.4830 C.3     2  LIG2        0.0664
     10    C       24.2830    3.6000    3.8980 C.3     2  LIG2       -0.0471
     11    C       27.6190    5.6310    4.8270 C.3     2  LIG2       -0.0237
     12    C       27.7950    1.3700    5.8730 C.3     2  LIG2       -0.0593
     13    C       29.8220    1.0060    4.3870 C.3     2  LIG2       -0.0593
     14    C       24.2700    2.1590    3.3790 C.3     2  LIG2       -0.0498
     15    C       25.9030    1.2510    1.6000 C.3     2  LIG2       -0.0621
     16    C       25.7160    6.3090    3.2980 C.3     2  LIG2       -0.0358
     17    H       28.5620    2.5620    2.6050 H       2  LIG2        0.0312
     18    H       29.9740    3.7010    4.3760 H       2  LIG2        0.0309
     19    H       26.5590    3.6600    2.4090 H       2  LIG2        0.0310
     20    H       25.8200    3.4270    5.3120 H       2  LIG2        0.0331
     21    H       27.7100    4.0760    6.3620 H       2  LIG2        0.0269
     22    H       29.1740    4.9520    6.1270 H       2  LIG2        0.0269
     23    H       26.0300    1.0090    3.7150 H       2  LIG2        0.0301
     24    H       23.5800    3.7300    4.7220 H       2  LIG2        0.0269
     25    H       23.9630    4.2640    3.0960 H       2  LIG2        0.0269
     26    H       27.7340    6.5630    5.3830 H       2  LIG2        0.0293
     27    H       28.1740    5.8090    3.9030 H       2  LIG2        0.0293
     28    H       28.4050    1.2030    6.7610 H       2  LIG2        0.0235
     29    H       27.3760    0.4050    5.5850 H       2  LIG2        0.0235
     30    H       26.9660    1.9880    6.1890 H       2  LIG2        0.0235
     31    H       30.4580    0.8310    5.2560 H       2  LIG2        0.0235
     32    H       30.4590    1.4030    3.5960 H       2  LIG2        0.0235
     33    H       29.4490    0.0390    4.0460 H       2  LIG2        0.0235
     34    H       23.5960    2.0600    2.5270 H       2  LIG2        0.0268
     35    H       23.8970    1.4880    4.1530 H       2  LIG2        0.0268
     36    H       25.6010    1.9830    0.8510 H       2  LIG2        0.0233
     37    H       25.3020    0.3540    1.4490 H       2  LIG2        0.0233
     38    H       26.9420    0.9840    1.4050 H       2  LIG2        0.0233
     39    H       26.1630    5.9700    2.3630 H       2  LIG2        0.0257
     40    H       26.0450    7.3370    3.4580 H       2  LIG2        0.0257
     41    H       24.6370    6.3530    3.1510 H       2  LIG2        0.0257
     42    H       25.7500    5.4120    6.3970 H       2  LIG2        0.2102
@<TRIPOS>BOND
     1    36    15    1
     2    38    15    1
     3    37    15    1
     4    15     8    1
     5    39    16    1
     6    19     5    1
     7    34    14    1
     8    17     2    1
     9     8     5    1
    10     8    14    1
    11     8    23    1
    12    25    10    1
    13    41    16    1
    14    16    40    1
    15    16     9    1
    16     5     2    1
    17     5     6    1
    18    14    10    1
    19    14    35    1
    20     2     4    1
    21     2     3    1
    22    32    13    1
    23    10     6    1
    24    10    24    1
    25    27    11    1
    26    33    13    1
    27     6     9    1
    28     6    20    1
    29    18     4    1
    30    13     3    1
    31    13    31    1
    32     9    11    1
    33     9     1    1
    34     4     3    1
    35     4     7    1
    36     3    12    1
    37    11    26    1
    38    11     7    1
    39     7    22    1
    40     7    21    1
    41    29    12    1
    42     1    42    1
    43    12    30    1
    44    12    28    1
@<TRIPOS>MOLECULE
11996452_2_run_18.pdb
 42 44 0 0 0
SMALL
GASTEIGER

@<TRIPOS>ATOM
      1    O       24.7920    1.4950    1.8140 O.3     2  LIG2       -0.3886
      2    C       27.9840    1.3470    5.1080 C.3     2  LIG2       -0.0289
      3    C       29.1600    0.6690    4.4250 C.3     2  LIG2       -0.0284
      4    C       27.8520   -0.0880    4.5540 C.3     2  LIG2       -0.0319
      5    C       27.1740    2.5680    4.5660 C.3     2  LIG2       -0.0294
      6    C       26.3990    2.5060    3.2260 C.3     2  LIG2       -0.0090
      7    C       26.9150   -0.4020    3.3670 C.3     2  LIG2       -0.0468
      8    C       28.0150    3.8640    4.4910 C.3     2  LIG2       -0.0404
      9    C       25.1530    1.5550    3.1850 C.3     2  LIG2        0.0664
     10    C       26.1220    3.9910    2.9160 C.3     2  LIG2       -0.0471
     11    C       25.4730    0.0900    3.6020 C.3     2  LIG2       -0.0237
     12    C       29.7090    1.1060    3.0480 C.3     2  LIG2       -0.0593
     13    C       30.3060    0.2220    5.3530 C.3     2  LIG2       -0.0593
     14    C       27.3260    4.7700    3.4530 C.3     2  LIG2       -0.0498
     15    C       28.2380    4.5420    5.8550 C.3     2  LIG2       -0.0621
     16    C       23.9120    2.0510    3.9640 C.3     2  LIG2       -0.0358
     17    H       28.0670    1.4350    6.1920 H       2  LIG2        0.0312
     18    H       27.8600   -0.9160    5.2650 H       2  LIG2        0.0309
     19    H       26.4020    2.7450    5.3170 H       2  LIG2        0.0310
     20    H       27.0810    2.1880    2.4440 H       2  LIG2        0.0331
     21    H       27.2990   -0.0580    2.4090 H       2  LIG2        0.0269
     22    H       26.8770   -1.4880    3.2710 H       2  LIG2        0.0269
     23    H       28.9990    3.6180    4.0900 H       2  LIG2        0.0301
     24    H       25.9850    4.1630    1.8460 H       2  LIG2        0.0269
     25    H       25.2230    4.3470    3.4150 H       2  LIG2        0.0269
     26    H       24.7780   -0.5970    3.1140 H       2  LIG2        0.0293
     27    H       25.2580   -0.0350    4.6660 H       2  LIG2        0.0293
     28    H       30.2570    0.2860    2.5830 H       2  LIG2        0.0235
     29    H       30.4060    1.9380    3.1560 H       2  LIG2        0.0235
     30    H       28.9620    1.4150    2.3290 H       2  LIG2        0.0235
     31    H       30.8640   -0.6070    4.9180 H       2  LIG2        0.0235
     32    H       29.9450   -0.1090    6.3270 H       2  LIG2        0.0235
     33    H       31.0060    1.0410    5.5300 H       2  LIG2        0.0235
     34    H       27.0140    5.7270    3.8730 H       2  LIG2        0.0268
     35    H       28.0170    4.9960    2.6400 H       2  LIG2        0.0268
     36    H       27.2930    4.8350    6.3140 H       2  LIG2        0.0233
     37    H       28.8490    5.4390    5.7510 H       2  LIG2        0.0233
     38    H       28.7520    3.8750    6.5490 H       2  LIG2        0.0233
     39    H       24.1380    2.2160    5.0170 H       2  LIG2        0.0257
     40    H       23.0990    1.3240    3.9190 H       2  LIG2        0.0257
     41    H       23.5100    2.9820    3.5630 H       2  LIG2        0.0257
     42    H       25.5390    1.1520    1.3170 H       2  LIG2        0.2102
@<TRIPOS>BOND
     1    42     1    1
     2     1     9    1
     3    24    10    1
     4    30    12    1
     5    21     7    1
     6    20     6    1
     7    28    12    1
     8    35    14    1
     9    10     6    1
    10    10    25    1
    11    10    14    1
    12    12    29    1
    13    12     3    1
    14    26    11    1
    15     9     6    1
    16     9    11    1
    17     9    16    1
    18     6     5    1
    19    22     7    1
    20     7    11    1
    21     7     4    1
    22    14    34    1
    23    14     8    1
    24    41    16    1
    25    11    27    1
    26    40    16    1
    27    16    39    1
    28    23     8    1
    29     3     4    1
    30     3     2    1
    31     3    13    1
    32     8     5    1
    33     8    15    1
    34     4     2    1
    35     4    18    1
    36     5     2    1
    37     5    19    1
    38    31    13    1
    39     2    17    1
    40    13    33    1
    41    13    32    1
    42    37    15    1
    43    15    36    1
    44    15    38    1
@<TRIPOS>MOLECULE
11996452_2_run_4.pdb
 42 44 0 0 0
SMALL
GASTEIGER

@<TRIPOS>ATOM
      1    O       27.6190   -1.3410    3.2360 O.3     2  LIG2       -0.3886
      2    C       27.0670    3.2070    3.5240 C.3     2  LIG2       -0.0289
      3    C       25.5720    3.3630    3.7450 C.3     2  LIG2       -0.0284
      4    C       26.0590    2.7030    2.4680 C.3     2  LIG2       -0.0319
      5    C       28.0300    2.2710    4.3240 C.3     2  LIG2       -0.0294
      6    C       27.8420    0.7340    4.3520 C.3     2  LIG2       -0.0090
      7    C       25.9080    1.1970    2.1630 C.3     2  LIG2       -0.0468
      8    C       28.1840    2.6900    5.8050 C.3     2  LIG2       -0.0404
      9    C       28.0930   -0.0240    3.0020 C.3     2  LIG2        0.0664
     10    C       28.7200    0.2980    5.5420 C.3     2  LIG2       -0.0471
     11    C       27.2500    0.5240    1.8140 C.3     2  LIG2       -0.0237
     12    C       24.7840    2.5740    4.8140 C.3     2  LIG2       -0.0593
     13    C       25.0230    4.7970    3.6090 C.3     2  LIG2       -0.0593
     14    C       28.6430    1.4330    6.5670 C.3     2  LIG2       -0.0498
     15    C       29.0990    3.9100    6.0160 C.3     2  LIG2       -0.0621
     16    C       29.5740   -0.1400    2.5710 C.3     2  LIG2       -0.0358
     17    H       27.5970    4.1270    3.2780 H       2  LIG2        0.0312
     18    H       25.9300    3.2930    1.5600 H       2  LIG2        0.0309
     19    H       29.0070    2.4150    3.8600 H       2  LIG2        0.0310
     20    H       26.8270    0.5130    4.6680 H       2  LIG2        0.0331
     21    H       25.3800    0.6480    2.9410 H       2  LIG2        0.0269
     22    H       25.2640    1.1130    1.2880 H       2  LIG2        0.0269
     23    H       27.2010    2.9550    6.1970 H       2  LIG2        0.0301
     24    H       28.3820   -0.6470    5.9710 H       2  LIG2        0.0269
     25    H       29.7600    0.1610    5.2480 H       2  LIG2        0.0269
     26    H       27.0710   -0.2700    1.0870 H       2  LIG2        0.0293
     27    H       27.8440    1.2550    1.2610 H       2  LIG2        0.0293
     28    H       23.7260    2.5360    4.5520 H       2  LIG2        0.0235
     29    H       24.8570    3.0620    5.7860 H       2  LIG2        0.0235
     30    H       25.0950    1.5480    4.9540 H       2  LIG2        0.0235
     31    H       23.9680    4.7900    3.3350 H       2  LIG2        0.0235
     32    H       25.5500    5.3720    2.8470 H       2  LIG2        0.0235
     33    H       25.1210    5.3420    4.5490 H       2  LIG2        0.0235
     34    H       29.6020    1.5710    7.0670 H       2  LIG2        0.0268
     35    H       27.9180    1.1840    7.3450 H       2  LIG2        0.0268
     36    H       30.1120    3.7150    5.6620 H       2  LIG2        0.0233
     37    H       29.1610    4.1760    7.0710 H       2  LIG2        0.0233
     38    H       28.7220    4.7840    5.4810 H       2  LIG2        0.0233
     39    H       30.0400    0.8400    2.4640 H       2  LIG2        0.0257
     40    H       29.6680   -0.6470    1.6090 H       2  LIG2        0.0257
     41    H       30.1720   -0.7150    3.2780 H       2  LIG2        0.0257
     42    H       27.7090   -1.8450    2.4240 H       2  LIG2        0.2102
@<TRIPOS>BOND
     1    26    11    1
     2    27    11    1
     3    22     7    1
     4    18     4    1
     5    40    16    1
     6    11     7    1
     7    11     9    1
     8     7     4    1
     9     7    21    1
    10    42     1    1
    11    39    16    1
    12     4     2    1
    13     4     3    1
    14    16     9    1
    15    16    41    1
    16    32    13    1
    17     9     1    1
    18     9     6    1
    19    17     2    1
    20    31    13    1
    21     2     3    1
    22     2     5    1
    23    13     3    1
    24    13    33    1
    25     3    12    1
    26    19     5    1
    27     5     6    1
    28     5     8    1
    29     6    20    1
    30     6    10    1
    31    28    12    1
    32    12    30    1
    33    12    29    1
    34    25    10    1
    35    38    15    1
    36    10    24    1
    37    10    14    1
    38    36    15    1
    39     8    15    1
    40     8    23    1
    41     8    14    1
    42    15    37    1
    43    14    34    1
    44    14    35    1
@<TRIPOS>MOLECULE
11996452_2_run_16.pdb
 42 44 0 0 0
SMALL
GASTEIGER

@<TRIPOS>ATOM
      1    O       30.7160    2.0080    4.4720 O.3     2  LIG2       -0.3886
      2    C       26.1390    2.3230    4.6040 C.3     2  LIG2       -0.0289
      3    C       25.8510    3.5620    3.7750 C.3     2  LIG2       -0.0284
      4    C       26.6910    3.7010    5.0300 C.3     2  LIG2       -0.0319
      5    C       27.0390    1.1150    4.1860 C.3     2  LIG2       -0.0294
      6    C       28.5440    1.2890    3.8660 C.3     2  LIG2       -0.0090
      7    C       28.2090    3.9890    5.0260 C.3     2  LIG2       -0.0468
      8    C       26.4590    0.3150    2.9970 C.3     2  LIG2       -0.0404
      9    C       29.4740    1.6730    5.0700 C.3     2  LIG2        0.0664
     10    C       28.8980   -0.0210    3.1340 C.3     2  LIG2       -0.0471
     11    C       29.0120    2.9490    5.8310 C.3     2  LIG2       -0.0237
     12    C       26.4480    3.8030    2.3710 C.3     2  LIG2       -0.0593
     13    C       24.4080    4.0980    3.8530 C.3     2  LIG2       -0.0593
     14    C       27.6460   -0.4200    2.3470 C.3     2  LIG2       -0.0498
     15    C       25.2910   -0.6120    3.3810 C.3     2  LIG2       -0.0621
     16    C       29.7470    0.5380    6.0860 C.3     2  LIG2       -0.0358
     17    H       25.2950    1.9470    5.1840 H       2  LIG2        0.0312
     18    H       26.2070    4.2140    5.8630 H       2  LIG2        0.0309
     19    H       27.0220    0.4450    5.0470 H       2  LIG2        0.0310
     20    H       28.6530    2.0610    3.1100 H       2  LIG2        0.0331
     21    H       28.6210    4.1220    4.0280 H       2  LIG2        0.0269
     22    H       28.3500    4.9560    5.5100 H       2  LIG2        0.0269
     23    H       26.0790    1.0190    2.2550 H       2  LIG2        0.0301
     24    H       29.7580    0.1020    2.4730 H       2  LIG2        0.0269
     25    H       29.1420   -0.8200    3.8320 H       2  LIG2        0.0269
     26    H       29.8730    3.4410    6.2890 H       2  LIG2        0.0293
     27    H       28.3980    2.6550    6.6840 H       2  LIG2        0.0293
     28    H       26.4410    4.8680    2.1340 H       2  LIG2        0.0235
     29    H       25.8550    3.3000    1.6070 H       2  LIG2        0.0235
     30    H       27.4700    3.4730    2.2410 H       2  LIG2        0.0235
     31    H       24.3720    5.1660    3.6340 H       2  LIG2        0.0235
     32    H       23.9670    3.9580    4.8410 H       2  LIG2        0.0235
     33    H       23.7620    3.5870    3.1370 H       2  LIG2        0.0235
     34    H       27.5190   -1.5030    2.3430 H       2  LIG2        0.0268
     35    H       27.7480   -0.1130    1.3050 H       2  LIG2        0.0268
     36    H       25.5990   -1.3600    4.1110 H       2  LIG2        0.0233
     37    H       24.9070   -1.1390    2.5070 H       2  LIG2        0.0233
     38    H       24.4630   -0.0470    3.8110 H       2  LIG2        0.0233
     39    H       28.8220    0.1570    6.5210 H       2  LIG2        0.0257
     40    H       30.3700    0.8870    6.9110 H       2  LIG2        0.0257
     41    H       30.2740   -0.3050    5.6410 H       2  LIG2        0.0257
     42    H       31.1120    1.2070    4.1220 H       2  LIG2        0.2102
@<TRIPOS>BOND
     1    35    14    1
     2    29    12    1
     3    28    12    1
     4    30    12    1
     5    23     8    1
     6    34    14    1
     7    14     8    1
     8    14    10    1
     9    12     3    1
    10    24    10    1
    11    37    15    1
    12     8    15    1
    13     8     5    1
    14    20     6    1
    15    10    25    1
    16    10     6    1
    17    33    13    1
    18    15    38    1
    19    15    36    1
    20    31    13    1
    21     3    13    1
    22     3     2    1
    23     3     4    1
    24    13    32    1
    25     6     5    1
    26     6     9    1
    27    21     7    1
    28    42     1    1
    29     5     2    1
    30     5    19    1
    31     1     9    1
    32     2     4    1
    33     2    17    1
    34     7     4    1
    35     7    22    1
    36     7    11    1
    37     4    18    1
    38     9    11    1
    39     9    16    1
    40    41    16    1
    41    11    26    1
    42    11    27    1
    43    16    39    1
    44    16    40    1
@<TRIPOS>MOLECULE
11996452_2_run_21.pdb
 42 44 0 0 0
SMALL
GASTEIGER

@<TRIPOS>ATOM
      1    O       29.0990    4.7350    4.2020 O.3     2  LIG2       -0.3886
      2    C       25.8890    1.4550    4.2300 C.3     2  LIG2       -0.0289
      3    C       25.2700    1.5610    2.8470 C.3     2  LIG2       -0.0284
      4    C       25.1900    2.7560    3.7780 C.3     2  LIG2       -0.0319
      5    C       27.4130    1.3540    4.5590 C.3     2  LIG2       -0.0294
      6    C       28.4110    2.4710    4.1640 C.3     2  LIG2       -0.0090
      7    C       25.9890    4.0620    3.5770 C.3     2  LIG2       -0.0468
      8    C       28.0520    0.0400    4.0550 C.3     2  LIG2       -0.0404
      9    C       28.2550    3.8410    4.9120 C.3     2  LIG2        0.0664
     10    C       29.7820    1.7790    4.3070 C.3     2  LIG2       -0.0471
     11    C       26.8240    4.4440    4.8150 C.3     2  LIG2       -0.0237
     12    C       26.1000    1.6040    1.5450 C.3     2  LIG2       -0.0593
     13    C       23.9650    0.7680    2.6360 C.3     2  LIG2       -0.0593
     14    C       29.5620    0.3140    3.9170 C.3     2  LIG2       -0.0498
     15    C       27.7230   -1.1870    4.9250 C.3     2  LIG2       -0.0621
     16    C       28.7180    3.8490    6.3880 C.3     2  LIG2       -0.0358
     17    H       25.3360    0.8370    4.9380 H       2  LIG2        0.0312
     18    H       24.1980    2.9710    4.1780 H       2  LIG2        0.0309
     19    H       27.4610    1.3220    5.6490 H       2  LIG2        0.0310
     20    H       28.3140    2.6650    3.1010 H       2  LIG2        0.0331
     21    H       26.5960    4.0640    2.6740 H       2  LIG2        0.0269
     22    H       25.2610    4.8580    3.4170 H       2  LIG2        0.0269
     23    H       27.6770   -0.1690    3.0520 H       2  LIG2        0.0301
     24    H       30.5400    2.2470    3.6760 H       2  LIG2        0.0269
     25    H       30.1490    1.8180    5.3310 H       2  LIG2        0.0269
     26    H       26.8730    5.5330    4.8890 H       2  LIG2        0.0293
     27    H       26.2500    4.1490    5.6960 H       2  LIG2        0.0293
     28    H       25.5220    2.0610    0.7420 H       2  LIG2        0.0235
     29    H       26.3620    0.5970    1.2200 H       2  LIG2        0.0235
     30    H       27.0250    2.1630    1.6050 H       2  LIG2        0.0235
     31    H       23.3590    1.2110    1.8450 H       2  LIG2        0.0235
     32    H       23.3490    0.7370    3.5350 H       2  LIG2        0.0235
     33    H       24.1780   -0.2650    2.3550 H       2  LIG2        0.0235
     34    H       30.1680   -0.3480    4.5370 H       2  LIG2        0.0268
     35    H       29.8770    0.1520    2.8850 H       2  LIG2        0.0268
     36    H       28.0850   -1.0610    5.9460 H       2  LIG2        0.0233
     37    H       28.1810   -2.0900    4.5200 H       2  LIG2        0.0233
     38    H       26.6470   -1.3610    4.9730 H       2  LIG2        0.0233
     39    H       28.1780    3.1120    6.9820 H       2  LIG2        0.0257
     40    H       28.5480    4.8220    6.8510 H       2  LIG2        0.0257
     41    H       29.7830    3.6430    6.4940 H       2  LIG2        0.0257
     42    H       29.9130    4.2750    3.9820 H       2  LIG2        0.2102
@<TRIPOS>BOND
     1    28    12    1
     2    29    12    1
     3    12    30    1
     4    12     3    1
     5    31    13    1
     6    33    13    1
     7    13     3    1
     8    13    32    1
     9    21     7    1
    10     3     4    1
    11     3     2    1
    12    35    14    1
    13    23     8    1
    14    20     6    1
    15    22     7    1
    16     7     4    1
    17     7    11    1
    18    24    10    1
    19     4    18    1
    20     4     2    1
    21    14     8    1
    22    14    10    1
    23    14    34    1
    24    42     1    1
    25     8     5    1
    26     8    15    1
    27     6    10    1
    28     6     5    1
    29     6     9    1
    30     1     9    1
    31     2     5    1
    32     2    17    1
    33    10    25    1
    34    37    15    1
    35     5    19    1
    36    11    26    1
    37    11     9    1
    38    11    27    1
    39     9    16    1
    40    15    38    1
    41    15    36    1
    42    16    41    1
    43    16    40    1
    44    16    39    1
@<TRIPOS>MOLECULE
11996452_2_run_22.pdb
 42 44 0 0 0
SMALL
GASTEIGER

@<TRIPOS>ATOM
      1    O       29.0170    1.3490    6.5810 O.3     2  LIG2       -0.3886
      2    C       26.6280    2.1180    2.7380 C.3     2  LIG2       -0.0289
      3    C       25.2620    1.5340    3.0540 C.3     2  LIG2       -0.0284
      4    C       26.4700    0.6170    3.0660 C.3     2  LIG2       -0.0319
      5    C       27.4350    3.1220    3.6220 C.3     2  LIG2       -0.0294
      6    C       27.8850    2.7670    5.0610 C.3     2  LIG2       -0.0090
      7    C       27.0830    0.0120    4.3480 C.3     2  LIG2       -0.0468
      8    C       26.7520    4.5050    3.7390 C.3     2  LIG2       -0.0404
      9    C       28.9750    1.6460    5.1940 C.3     2  LIG2        0.0664
     10    C       28.2560    4.1390    5.6580 C.3     2  LIG2       -0.0471
     11    C       28.5870    0.3140    4.4880 C.3     2  LIG2       -0.0237
     12    C       24.4780    1.8560    4.3460 C.3     2  LIG2       -0.0593
     13    C       24.3030    1.3890    1.8560 C.3     2  LIG2       -0.0593
     14    C       27.2960    5.1520    5.0260 C.3     2  LIG2       -0.0498
     15    C       26.9130    5.3870    2.4870 C.3     2  LIG2       -0.0621
     16    C       30.4050    2.0560    4.7690 C.3     2  LIG2       -0.0358
     17    H       26.7950    2.3620    1.6880 H       2  LIG2        0.0312
     18    H       26.5230   -0.0970    2.2420 H       2  LIG2        0.0309
     19    H       28.3680    3.2840    3.0790 H       2  LIG2        0.0310
     20    H       27.0170    2.4490    5.6290 H       2  LIG2        0.0331
     21    H       26.5400    0.2750    5.2530 H       2  LIG2        0.0269
     22    H       26.9740   -1.0710    4.2710 H       2  LIG2        0.0269
     23    H       25.6820    4.3540    3.8900 H       2  LIG2        0.0301
     24    H       28.1750    4.1430    6.7470 H       2  LIG2        0.0269
     25    H       29.2780    4.4240    5.4130 H       2  LIG2        0.0269
     26    H       29.0750   -0.5260    4.9860 H       2  LIG2        0.0293
     27    H       29.0140    0.3040    3.4820 H       2  LIG2        0.0293
     28    H       23.7510    1.0700    4.5530 H       2  LIG2        0.0235
     29    H       23.9230    2.7870    4.2390 H       2  LIG2        0.0235
     30    H       25.0800    1.9520    5.2400 H       2  LIG2        0.0235
     31    H       23.5720    0.5990    2.0310 H       2  LIG2        0.0235
     32    H       24.8280    1.1430    0.9320 H       2  LIG2        0.0235
     33    H       23.7580    2.3170    1.6790 H       2  LIG2        0.0235
     34    H       27.8010    6.1000    4.8390 H       2  LIG2        0.0268
     35    H       26.4750    5.3650    5.7120 H       2  LIG2        0.0268
     36    H       27.9620    5.5980    2.2790 H       2  LIG2        0.0233
     37    H       26.4010    6.3410    2.6120 H       2  LIG2        0.0233
     38    H       26.4900    4.9020    1.6050 H       2  LIG2        0.0233
     39    H       30.4350    2.3930    3.7320 H       2  LIG2        0.0257
     40    H       31.0990    1.2190    4.8550 H       2  LIG2        0.0257
     41    H       30.8130    2.8550    5.3880 H       2  LIG2        0.0257
     42    H       28.1490    1.0450    6.8540 H       2  LIG2        0.2102
@<TRIPOS>BOND
     1    32    13    1
     2    38    15    1
     3    33    13    1
     4    17     2    1
     5    13    31    1
     6    13     3    1
     7    18     4    1
     8    36    15    1
     9    15    37    1
    10    15     8    1
    11     2     3    1
    12     2     4    1
    13     2     5    1
    14     3     4    1
    15     3    12    1
    16     4     7    1
    17    19     5    1
    18    27    11    1
    19     5     8    1
    20     5     6    1
    21    39    16    1
    22     8    23    1
    23     8    14    1
    24    29    12    1
    25    22     7    1
    26    12    28    1
    27    12    30    1
    28     7    11    1
    29     7    21    1
    30    11    26    1
    31    11     9    1
    32    16    40    1
    33    16     9    1
    34    16    41    1
    35    34    14    1
    36    14    10    1
    37    14    35    1
    38     6     9    1
    39     6    20    1
    40     6    10    1
    41     9     1    1
    42    25    10    1
    43    10    24    1
    44     1    42    1
