# Top-energy pose of compounds ranked according to the score (given in kcal/mol).
@<TRIPOS>MOLECULE
ligand_0976b3f73_1_run_17.pdb
 39 39 0 0 0
SMALL
GASTEIGER

@<TRIPOS>ATOM
      1    C       23.1540   10.7370   -3.9800 C.3     2  LIG2       -0.0275
      2    C       21.6250   10.5270   -3.9060 C.2     2  LIG2       -0.0668
      3    C       23.9140   10.0410   -5.1500 C.3     2  LIG2       -0.0283
      4    C       20.7900   11.7550   -4.3300 C.3     2  LIG2       -0.0130
      5    C       23.7020   10.6840   -6.5160 C.2     2  LIG2       -0.0762
      6    C       21.1830   11.9730   -8.2310 C.3     2  LIG2       -0.0286
      7    C       22.2170   10.8680   -8.6070 C.3     2  LIG2       -0.0308
      8    C       20.4910   11.7240   -6.8890 C.2     2  LIG2       -0.0759
      9    C       21.0760    9.3540   -3.4770 C.2     2  LIG2       -0.0762
     10    C       21.0610   12.1930   -5.7560 C.2     2  LIG2       -0.0810
     11    C       22.8150   10.1610   -7.3910 C.2     2  LIG2       -0.0847
     12    C       24.4540   11.9900   -6.7430 C.3     2  LIG2       -0.0438
     13    C       19.3250   10.7470   -6.9350 C.3     2  LIG2       -0.0438
     14    C       21.8940    8.1320   -3.0610 C.3     2  LIG2       -0.0438
     15    C       19.5780    9.0970   -3.3280 C.3     2  LIG2       -0.0438
     16    H       23.3730   11.8050   -3.9700 H       2  LIG2        0.0313
     17    H       23.5780   10.3870   -3.0390 H       2  LIG2        0.0313
     18    H       24.9850   10.0430   -4.9430 H       2  LIG2        0.0313
     19    H       23.6350    8.9880   -5.1970 H       2  LIG2        0.0313
     20    H       19.7210   11.5910   -4.2370 H       2  LIG2        0.0352
     21    H       21.0030   12.5840   -3.6540 H       2  LIG2        0.0352
     22    H       21.7100   12.9260   -8.1720 H       2  LIG2        0.0313
     23    H       20.4430   12.1060   -9.0220 H       2  LIG2        0.0313
     24    H       21.7250   10.1000   -9.2060 H       2  LIG2        0.0310
     25    H       23.0050   11.2720   -9.2430 H       2  LIG2        0.0310
     26    H       21.9180   12.8440   -5.8490 H       2  LIG2        0.0575
     27    H       22.3100    9.2440   -7.1210 H       2  LIG2        0.0572
     28    H       24.2720   12.6950   -5.9320 H       2  LIG2        0.0274
     29    H       24.1740   12.4820   -7.6730 H       2  LIG2        0.0274
     30    H       25.5260   11.7950   -6.7890 H       2  LIG2        0.0274
     31    H       18.4650   11.2190   -7.4120 H       2  LIG2        0.0274
     32    H       19.0100   10.4120   -5.9500 H       2  LIG2        0.0274
     33    H       19.5920    9.8600   -7.5110 H       2  LIG2        0.0274
     34    H       21.6680    7.8600   -2.0300 H       2  LIG2        0.0274
     35    H       22.9710    8.2700   -3.1180 H       2  LIG2        0.0274
     36    H       21.6460    7.2860   -3.7000 H       2  LIG2        0.0274
     37    H       19.3790    8.4580   -2.4660 H       2  LIG2        0.0274
     38    H       19.2020    8.5820   -4.2110 H       2  LIG2        0.0274
     39    H       18.9820    9.9940   -3.1750 H       2  LIG2        0.0274
@<TRIPOS>BOND
     1    25     7    1
     2    24     7    1
     3    23     6    1
     4     7     6    1
     5     7    11    1
     6     6    22    1
     7     6     8    1
     8    29    12    1
     9    33    13    1
    10    31    13    1
    11    11    27    1
    12    11     5    2
    13    13     8    1
    14    13    32    1
    15     8    10    2
    16    30    12    1
    17    12     5    1
    18    12    28    1
    19     5     3    1
    20    26    10    1
    21    10     4    1
    22    19     3    1
    23     3    18    1
    24     3     1    1
    25     4    20    1
    26     4     2    1
    27     4    21    1
    28    38    15    1
    29     1    16    1
    30     1     2    1
    31     1    17    1
    32     2     9    2
    33    36    14    1
    34     9    15    1
    35     9    14    1
    36    15    39    1
    37    15    37    1
    38    35    14    1
    39    14    34    1
