@<TRIPOS>MOLECULE
ligand_0976b3f73_1_run_17.pdb
 39 39 0 0 0
SMALL
GASTEIGER

@<TRIPOS>ATOM
      1    C       23.1540   10.7370   -3.9800 C.3     2  LIG2       -0.0275
      2    C       21.6250   10.5270   -3.9060 C.2     2  LIG2       -0.0668
      3    C       23.9140   10.0410   -5.1500 C.3     2  LIG2       -0.0283
      4    C       20.7900   11.7550   -4.3300 C.3     2  LIG2       -0.0130
      5    C       23.7020   10.6840   -6.5160 C.2     2  LIG2       -0.0762
      6    C       21.1830   11.9730   -8.2310 C.3     2  LIG2       -0.0286
      7    C       22.2170   10.8680   -8.6070 C.3     2  LIG2       -0.0308
      8    C       20.4910   11.7240   -6.8890 C.2     2  LIG2       -0.0759
      9    C       21.0760    9.3540   -3.4770 C.2     2  LIG2       -0.0762
     10    C       21.0610   12.1930   -5.7560 C.2     2  LIG2       -0.0810
     11    C       22.8150   10.1610   -7.3910 C.2     2  LIG2       -0.0847
     12    C       24.4540   11.9900   -6.7430 C.3     2  LIG2       -0.0438
     13    C       19.3250   10.7470   -6.9350 C.3     2  LIG2       -0.0438
     14    C       21.8940    8.1320   -3.0610 C.3     2  LIG2       -0.0438
     15    C       19.5780    9.0970   -3.3280 C.3     2  LIG2       -0.0438
     16    H       23.3730   11.8050   -3.9700 H       2  LIG2        0.0313
     17    H       23.5780   10.3870   -3.0390 H       2  LIG2        0.0313
     18    H       24.9850   10.0430   -4.9430 H       2  LIG2        0.0313
     19    H       23.6350    8.9880   -5.1970 H       2  LIG2        0.0313
     20    H       19.7210   11.5910   -4.2370 H       2  LIG2        0.0352
     21    H       21.0030   12.5840   -3.6540 H       2  LIG2        0.0352
     22    H       21.7100   12.9260   -8.1720 H       2  LIG2        0.0313
     23    H       20.4430   12.1060   -9.0220 H       2  LIG2        0.0313
     24    H       21.7250   10.1000   -9.2060 H       2  LIG2        0.0310
     25    H       23.0050   11.2720   -9.2430 H       2  LIG2        0.0310
     26    H       21.9180   12.8440   -5.8490 H       2  LIG2        0.0575
     27    H       22.3100    9.2440   -7.1210 H       2  LIG2        0.0572
     28    H       24.2720   12.6950   -5.9320 H       2  LIG2        0.0274
     29    H       24.1740   12.4820   -7.6730 H       2  LIG2        0.0274
     30    H       25.5260   11.7950   -6.7890 H       2  LIG2        0.0274
     31    H       18.4650   11.2190   -7.4120 H       2  LIG2        0.0274
     32    H       19.0100   10.4120   -5.9500 H       2  LIG2        0.0274
     33    H       19.5920    9.8600   -7.5110 H       2  LIG2        0.0274
     34    H       21.6680    7.8600   -2.0300 H       2  LIG2        0.0274
     35    H       22.9710    8.2700   -3.1180 H       2  LIG2        0.0274
     36    H       21.6460    7.2860   -3.7000 H       2  LIG2        0.0274
     37    H       19.3790    8.4580   -2.4660 H       2  LIG2        0.0274
     38    H       19.2020    8.5820   -4.2110 H       2  LIG2        0.0274
     39    H       18.9820    9.9940   -3.1750 H       2  LIG2        0.0274
@<TRIPOS>BOND
     1    25     7    1
     2    24     7    1
     3    23     6    1
     4     7     6    1
     5     7    11    1
     6     6    22    1
     7     6     8    1
     8    29    12    1
     9    33    13    1
    10    31    13    1
    11    11    27    1
    12    11     5    2
    13    13     8    1
    14    13    32    1
    15     8    10    2
    16    30    12    1
    17    12     5    1
    18    12    28    1
    19     5     3    1
    20    26    10    1
    21    10     4    1
    22    19     3    1
    23     3    18    1
    24     3     1    1
    25     4    20    1
    26     4     2    1
    27     4    21    1
    28    38    15    1
    29     1    16    1
    30     1     2    1
    31     1    17    1
    32     2     9    2
    33    36    14    1
    34     9    15    1
    35     9    14    1
    36    15    39    1
    37    15    37    1
    38    35    14    1
    39    14    34    1
@<TRIPOS>MOLECULE
ligand_0976b3f73_1_run_3.pdb
 39 39 0 0 0
SMALL
GASTEIGER

@<TRIPOS>ATOM
      1    C       13.1460   13.6740   -5.6480 C.3     2  LIG2       -0.0275
      2    C       13.2120   12.5480   -6.7030 C.2     2  LIG2       -0.0668
      3    C       12.9020   15.1240   -6.1680 C.3     2  LIG2       -0.0283
      4    C       11.9640   11.6370   -6.7450 C.3     2  LIG2       -0.0130
      5    C       11.4780   15.4000   -6.6360 C.2     2  LIG2       -0.0762
      6    C        9.1440   13.8290   -8.3780 C.3     2  LIG2       -0.0286
      7    C        9.7680   15.2480   -8.5490 C.3     2  LIG2       -0.0308
      8    C       10.1900   12.7160   -8.2690 C.2     2  LIG2       -0.0759
      9    C       14.3000   12.3710   -7.5060 C.2     2  LIG2       -0.0762
     10    C       10.6890   12.3950   -7.0540 C.2     2  LIG2       -0.0810
     11    C       11.1680   15.3690   -7.9500 C.2     2  LIG2       -0.0847
     12    C       10.4510   15.5770   -5.5230 C.3     2  LIG2       -0.0438
     13    C       10.7540   12.2310   -9.5970 C.3     2  LIG2       -0.0438
     14    C       15.5370   13.2690   -7.4750 C.3     2  LIG2       -0.0438
     15    C       14.4550   11.2480   -8.5290 C.3     2  LIG2       -0.0438
     16    H       12.4070   13.4170   -4.8890 H       2  LIG2        0.0313
     17    H       14.0850   13.6610   -5.0960 H       2  LIG2        0.0313
     18    H       13.1390   15.8400   -5.3790 H       2  LIG2        0.0313
     19    H       13.5990   15.3490   -6.9750 H       2  LIG2        0.0313
     20    H       12.0510   10.8350   -7.4700 H       2  LIG2        0.0352
     21    H       11.8570   11.1320   -5.7850 H       2  LIG2        0.0352
     22    H        8.5490   13.8280   -7.4640 H       2  LIG2        0.0313
     23    H        8.4360   13.6100   -9.1780 H       2  LIG2        0.0313
     24    H        9.8600   15.4760   -9.6120 H       2  LIG2        0.0310
     25    H        9.1080   16.0150   -8.1430 H       2  LIG2        0.0310
     26    H       10.2330   12.8430   -6.1830 H       2  LIG2        0.0575
     27    H       11.9670   15.2060   -8.6600 H       2  LIG2        0.0572
     28    H       10.4910   14.7490   -4.8150 H       2  LIG2        0.0274
     29    H        9.4310   15.6400   -5.8960 H       2  LIG2        0.0274
     30    H       10.6540   16.5000   -4.9780 H       2  LIG2        0.0274
     31    H       10.0100   11.6270  -10.1170 H       2  LIG2        0.0274
     32    H       11.6480   11.6220   -9.4830 H       2  LIG2        0.0274
     33    H       11.0160   13.0760  -10.2340 H       2  LIG2        0.0274
     34    H       16.4250   12.6810   -7.2440 H       2  LIG2        0.0274
     35    H       15.4940   14.0700   -6.7410 H       2  LIG2        0.0274
     36    H       15.6790   13.7360   -8.4490 H       2  LIG2        0.0274
     37    H       15.4910   10.9110   -8.5790 H       2  LIG2        0.0274
     38    H       14.1790   11.6100   -9.5190 H       2  LIG2        0.0274
     39    H       13.8650   10.3600   -8.3130 H       2  LIG2        0.0274
@<TRIPOS>BOND
     1    33    13    1
     2    31    13    1
     3    24     7    1
     4    13    32    1
     5    13     8    1
     6    38    15    1
     7    23     6    1
     8    27    11    1
     9    37    15    1
    10     7     6    1
    11     7    25    1
    12     7    11    1
    13    15    39    1
    14    15     9    1
    15    36    14    1
    16     6     8    1
    17     6    22    1
    18     8    10    2
    19    11     5    2
    20     9    14    1
    21     9     2    2
    22    14    34    1
    23    14    35    1
    24    20     4    1
    25    10     4    1
    26    10    26    1
    27    19     3    1
    28     4     2    1
    29     4    21    1
    30     2     1    1
    31     5     3    1
    32     5    12    1
    33     3     1    1
    34     3    18    1
    35    29    12    1
    36     1    17    1
    37     1    16    1
    38    12    30    1
    39    12    28    1
@<TRIPOS>MOLECULE
ligand_0976b3f73_1_run_6.pdb
 39 39 0 0 0
SMALL
GASTEIGER

@<TRIPOS>ATOM
      1    C       19.8680   11.6690   -4.8140 C.3     2  LIG2       -0.0275
      2    C       21.1640   12.4800   -4.5920 C.2     2  LIG2       -0.0668
      3    C       20.0240   10.1970   -5.3040 C.3     2  LIG2       -0.0283
      4    C       21.5340   12.7010   -3.1090 C.3     2  LIG2       -0.0130
      5    C       20.5210    9.2230   -4.2420 C.2     2  LIG2       -0.0762
      6    C       22.7840    9.2050   -1.8290 C.3     2  LIG2       -0.0286
      7    C       22.5420    8.2190   -3.0120 C.3     2  LIG2       -0.0308
      8    C       22.8750   10.6680   -2.2680 C.2     2  LIG2       -0.0759
      9    C       21.8950   12.9740   -5.6330 C.2     2  LIG2       -0.0762
     10    C       21.7450   11.4040   -2.3520 C.2     2  LIG2       -0.0810
     11    C       21.8210    8.8600   -4.1960 C.2     2  LIG2       -0.0847
     12    C       19.4850    8.8150   -3.2000 C.3     2  LIG2       -0.0438
     13    C       24.2330   11.0950   -2.8100 C.3     2  LIG2       -0.0438
     14    C       21.5400   12.7580   -7.1030 C.3     2  LIG2       -0.0438
     15    C       23.1520   13.8290   -5.4850 C.3     2  LIG2       -0.0438
     16    H       19.2600   11.7030   -3.9090 H       2  LIG2        0.0313
     17    H       19.2630   12.2100   -5.5410 H       2  LIG2        0.0313
     18    H       19.0640    9.8300   -5.6710 H       2  LIG2        0.0313
     19    H       20.6900   10.1630   -6.1670 H       2  LIG2        0.0313
     20    H       22.4290   13.3020   -2.9820 H       2  LIG2        0.0352
     21    H       20.7440   13.2750   -2.6240 H       2  LIG2        0.0352
     22    H       21.9510    9.1100   -1.1310 H       2  LIG2        0.0313
     23    H       23.6680    8.9240   -1.2550 H       2  LIG2        0.0313
     24    H       23.5020    7.8600   -3.3850 H       2  LIG2        0.0310
     25    H       22.0100    7.3280   -2.6740 H       2  LIG2        0.0310
     26    H       20.8280   10.9730   -1.9760 H       2  LIG2        0.0575
     27    H       22.4820    9.2290   -4.9680 H       2  LIG2        0.0572
     28    H       19.0080    9.6890   -2.7560 H       2  LIG2        0.0274
     29    H       19.9120    8.2280   -2.3880 H       2  LIG2        0.0274
     30    H       18.7110    8.2070   -3.6680 H       2  LIG2        0.0274
     31    H       24.9460   11.1860   -1.9900 H       2  LIG2        0.0274
     32    H       24.2040   12.0520   -3.3260 H       2  LIG2        0.0274
     33    H       24.6130   10.3560   -3.5150 H       2  LIG2        0.0274
     34    H       21.3940   13.7160   -7.6020 H       2  LIG2        0.0274
     35    H       20.6330   12.1800   -7.2670 H       2  LIG2        0.0274
     36    H       22.3500   12.2310   -7.6050 H       2  LIG2        0.0274
     37    H       23.2020   14.5830   -6.2730 H       2  LIG2        0.0274
     38    H       24.0380   13.2010   -5.5750 H       2  LIG2        0.0274
     39    H       23.2150   14.3770   -4.5480 H       2  LIG2        0.0274
@<TRIPOS>BOND
     1    36    14    1
     2    34    14    1
     3    35    14    1
     4    14     9    1
     5    37    15    1
     6    19     3    1
     7    18     3    1
     8     9    15    1
     9     9     2    2
    10    38    15    1
    11    17     1    1
    12    15    39    1
    13     3     1    1
    14     3     5    1
    15    27    11    1
    16     1     2    1
    17     1    16    1
    18     2     4    1
    19     5    11    2
    20     5    12    1
    21    11     7    1
    22    30    12    1
    23    33    13    1
    24    24     7    1
    25    32    13    1
    26    12    28    1
    27    12    29    1
    28     4    20    1
    29     4    21    1
    30     4    10    1
    31     7    25    1
    32     7     6    1
    33    13     8    1
    34    13    31    1
    35    10     8    2
    36    10    26    1
    37     8     6    1
    38     6    23    1
    39     6    22    1
