# Top-energy pose of compounds ranked according to the score (given in kcal/mol).
@<TRIPOS>MOLECULE
11996452_10_run_10.pdb
 42 44 0 0 0
SMALL
GASTEIGER

@<TRIPOS>ATOM
      1    O       26.0990    3.4530    2.5910 O.3     2  LIG2       -0.3886
      2    C       27.6810   -0.0280    5.1050 C.3     2  LIG2       -0.0289
      3    C       28.1780   -0.9400    3.9950 C.3     2  LIG2       -0.0284
      4    C       26.6970   -0.6100    4.0660 C.3     2  LIG2       -0.0319
      5    C       27.9160    1.5090    5.2920 C.3     2  LIG2       -0.0294
      6    C       27.6310    2.5110    4.1420 C.3     2  LIG2       -0.0090
      7    C       25.9760    0.2980    3.0430 C.3     2  LIG2       -0.0468
      8    C       29.2780    1.9250    5.9290 C.3     2  LIG2       -0.0404
      9    C       26.1180    2.8020    3.8520 C.3     2  LIG2        0.0664
     10    C       28.5010    3.7320    4.4870 C.3     2  LIG2       -0.0471
     11    C       25.2680    1.5110    3.6790 C.3     2  LIG2       -0.0237
     12    C       29.0460   -0.4840    2.7970 C.3     2  LIG2       -0.0593
     13    C       28.5840   -2.3590    4.4410 C.3     2  LIG2       -0.0593
     14    C       29.7570    3.1430    5.1230 C.3     2  LIG2       -0.0498
     15    C       30.3620    0.8320    6.0240 C.3     2  LIG2       -0.0621
     16    C       25.4200    3.7470    4.8600 C.3     2  LIG2       -0.0358
     17    H       27.6400   -0.4880    6.0940 H       2  LIG2        0.0312
     18    H       26.0460   -1.4290    4.3800 H       2  LIG2        0.0309
     19    H       27.1800    1.7680    6.0560 H       2  LIG2        0.0310
     20    H       28.0700    2.1240    3.2320 H       2  LIG2        0.0331
     21    H       26.6120    0.6110    2.2180 H       2  LIG2        0.0269
     22    H       25.2040   -0.3110    2.5690 H       2  LIG2        0.0269
     23    H       29.0890    2.2620    6.9510 H       2  LIG2        0.0301
     24    H       28.7420    4.3280    3.6050 H       2  LIG2        0.0269
     25    H       28.0130    4.3910    5.2040 H       2  LIG2        0.0269
     26    H       24.3660    1.7390    3.1080 H       2  LIG2        0.0293
     27    H       24.8940    1.1950    4.6550 H       2  LIG2        0.0293
     28    H       28.9690   -1.2080    1.9850 H       2  LIG2        0.0235
     29    H       30.0990   -0.4310    3.0710 H       2  LIG2        0.0235
     30    H       28.7880    0.4670    2.3560 H       2  LIG2        0.0235
     31    H       28.4880   -3.0720    3.6210 H       2  LIG2        0.0235
     32    H       27.9640   -2.7290    5.2600 H       2  LIG2        0.0235
     33    H       29.6170   -2.3800    4.7840 H       2  LIG2        0.0235
     34    H       30.2620    3.8750    5.7530 H       2  LIG2        0.0268
     35    H       30.4620    2.8440    4.3450 H       2  LIG2        0.0268
     36    H       30.6570    0.4640    5.0440 H       2  LIG2        0.0233
     37    H       30.0230   -0.0190    6.6150 H       2  LIG2        0.0233
     38    H       31.2590    1.2180    6.5070 H       2  LIG2        0.0233
     39    H       25.4860    3.3650    5.8800 H       2  LIG2        0.0257
     40    H       24.3610    3.8650    4.6260 H       2  LIG2        0.0257
     41    H       25.8500    4.7480    4.8550 H       2  LIG2        0.0257
     42    H       26.4430    4.3430    2.7040 H       2  LIG2        0.2102
@<TRIPOS>BOND
     1    28    12    1
     2    21     7    1
     3    30    12    1
     4    22     7    1
     5     1    42    1
     6     1     9    1
     7    12    29    1
     8    12     3    1
     9     7    11    1
    10     7     4    1
    11    26    11    1
    12    20     6    1
    13    24    10    1
    14    31    13    1
    15    11     9    1
    16    11    27    1
    17     9     6    1
    18     9    16    1
    19     3     4    1
    20     3    13    1
    21     3     2    1
    22     4    18    1
    23     4     2    1
    24     6    10    1
    25     6     5    1
    26    35    14    1
    27    13    33    1
    28    13    32    1
    29    10    14    1
    30    10    25    1
    31    40    16    1
    32    41    16    1
    33    16    39    1
    34    36    15    1
    35     2     5    1
    36     2    17    1
    37    14    34    1
    38    14     8    1
    39     5     8    1
    40     5    19    1
    41     8    15    1
    42     8    23    1
    43    15    38    1
    44    15    37    1
@<TRIPOS>MOLECULE
11996452_11_run_13.pdb
 42 44 0 0 0
SMALL
GASTEIGER

@<TRIPOS>ATOM
      1    O       29.8800   -1.1070    6.1070 O.3     2  LIG2       -0.3886
      2    C       26.4680    1.5310    4.6180 C.3     2  LIG2       -0.0289
      3    C       25.3610    1.2430    3.6210 C.3     2  LIG2       -0.0284
      4    C       25.7970    0.1500    4.5730 C.3     2  LIG2       -0.0319
      5    C       27.9680    1.6260    4.2360 C.3     2  LIG2       -0.0294
      6    C       28.8500    0.9080    5.2930 C.3     2  LIG2       -0.0090
      7    C       26.6200   -1.0890    4.1510 C.3     2  LIG2       -0.0468
      8    C       28.5480    3.0600    4.0640 C.3     2  LIG2       -0.0404
      9    C       29.0700   -0.6230    5.0480 C.3     2  LIG2        0.0664
     10    C       30.1170    1.7750    5.4000 C.3     2  LIG2       -0.0471
     11    C       27.7530   -1.4540    5.1370 C.3     2  LIG2       -0.0237
     12    C       24.0000    1.9080    3.9000 C.3     2  LIG2       -0.0593
     13    C       25.6500    1.1560    2.1030 C.3     2  LIG2       -0.0593
     14    C       29.6350    3.1990    5.1370 C.3     2  LIG2       -0.0498
     15    C       27.5300    4.2200    4.0880 C.3     2  LIG2       -0.0621
     16    C       29.8410   -0.9760    3.7510 C.3     2  LIG2       -0.0358
     17    H       26.2310    2.1410    5.4900 H       2  LIG2        0.0312
     18    H       25.0800   -0.1070    5.3550 H       2  LIG2        0.0309
     19    H       28.1280    1.1360    3.2800 H       2  LIG2        0.0310
     20    H       28.3550    1.0030    6.2630 H       2  LIG2        0.0331
     21    H       25.9320   -1.9330    4.1070 H       2  LIG2        0.0269
     22    H       27.0220   -1.0030    3.1440 H       2  LIG2        0.0269
     23    H       29.0480    3.1070    3.0950 H       2  LIG2        0.0301
     24    H       30.5880    1.6920    6.3810 H       2  LIG2        0.0269
     25    H       30.8630    1.4950    4.6570 H       2  LIG2        0.0269
     26    H       27.3430   -1.3800    6.1480 H       2  LIG2        0.0293
     27    H       27.9890   -2.5110    4.9990 H       2  LIG2        0.0293
     28    H       23.1860    1.3380    3.4530 H       2  LIG2        0.0235
     29    H       23.9670    2.9180    3.4890 H       2  LIG2        0.0235
     30    H       23.7930    1.9870    4.9680 H       2  LIG2        0.0235
     31    H       24.8750    0.5810    1.5970 H       2  LIG2        0.0235
     32    H       26.5990    0.6900    1.8500 H       2  LIG2        0.0235
     33    H       25.6640    2.1520    1.6600 H       2  LIG2        0.0235
     34    H       30.4540    3.8410    4.8100 H       2  LIG2        0.0268
     35    H       29.2280    3.6340    6.0520 H       2  LIG2        0.0268
     36    H       27.0200    4.2960    5.0490 H       2  LIG2        0.0233
     37    H       26.7720    4.0940    3.3150 H       2  LIG2        0.0233
     38    H       28.0250    5.1750    3.9080 H       2  LIG2        0.0233
     39    H       29.3150   -0.6600    2.8510 H       2  LIG2        0.0257
     40    H       29.9950   -2.0530    3.6590 H       2  LIG2        0.0257
     41    H       30.8310   -0.5220    3.7210 H       2  LIG2        0.0257
     42    H       30.7540   -0.7170    6.0230 H       2  LIG2        0.2102
@<TRIPOS>BOND
     1    31    13    1
     2    33    13    1
     3    32    13    1
     4    13     3    1
     5    39    16    1
     6    23     8    1
     7    22     7    1
     8    19     5    1
     9    37    15    1
    10    28    12    1
    11    29    12    1
    12     3    12    1
    13     3     4    1
    14     3     2    1
    15    40    16    1
    16    41    16    1
    17    16     9    1
    18    12    30    1
    19    38    15    1
    20     8    15    1
    21     8     5    1
    22     8    14    1
    23    15    36    1
    24    21     7    1
    25     7     4    1
    26     7    11    1
    27     5     2    1
    28     5     6    1
    29     4     2    1
    30     4    18    1
    31     2    17    1
    32    25    10    1
    33    34    14    1
    34    27    11    1
    35     9    11    1
    36     9     6    1
    37     9     1    1
    38    14    10    1
    39    14    35    1
    40    11    26    1
    41     6    10    1
    42     6    20    1
    43    10    24    1
    44    42     1    1
@<TRIPOS>MOLECULE
11996452_4_run_9.pdb
 42 44 0 0 0
SMALL
GASTEIGER

@<TRIPOS>ATOM
      1    O       25.7090    2.1170    2.3370 O.3     2  LIG2       -0.3886
      2    C       28.4460    0.7530    5.0240 C.3     2  LIG2       -0.0289
      3    C       29.0670   -0.5380    4.5260 C.3     2  LIG2       -0.0284
      4    C       27.5850   -0.5010    4.8300 C.3     2  LIG2       -0.0319
      5    C       28.1610    1.9750    4.1140 C.3     2  LIG2       -0.0294
      6    C       26.7900    2.6200    4.4670 C.3     2  LIG2       -0.0090
      7    C       26.4770   -0.4980    3.7520 C.3     2  LIG2       -0.0468
      8    C       29.2210    3.1150    4.1330 C.3     2  LIG2       -0.0404
      9    C       25.5470    1.9980    3.7420 C.3     2  LIG2        0.0664
     10    C       27.0110    4.1270    4.2380 C.3     2  LIG2       -0.0471
     11    C       25.3220    0.4860    4.0510 C.3     2  LIG2       -0.0237
     12    C       29.5890   -0.6710    3.0770 C.3     2  LIG2       -0.0593
     13    C       29.9660   -1.2930    5.5230 C.3     2  LIG2       -0.0593
     14    C       28.4720    4.3710    4.5990 C.3     2  LIG2       -0.0498
     15    C       30.5010    2.8480    4.9520 C.3     2  LIG2       -0.0621
     16    C       24.2470    2.7630    4.0860 C.3     2  LIG2       -0.0358
     17    H       28.6280    1.0480    6.0590 H       2  LIG2        0.0312
     18    H       27.2700   -1.0630    5.7110 H       2  LIG2        0.0309
     19    H       28.1110    1.6510    3.0770 H       2  LIG2        0.0310
     20    H       26.6220    2.5030    5.5400 H       2  LIG2        0.0331
     21    H       26.8620   -0.3160    2.7510 H       2  LIG2        0.0269
     22    H       26.0580   -1.5050    3.7150 H       2  LIG2        0.0269
     23    H       29.5410    3.2940    3.1050 H       2  LIG2        0.0301
     24    H       26.8280    4.3970    3.1970 H       2  LIG2        0.0269
     25    H       26.3480    4.7350    4.8560 H       2  LIG2        0.0269
     26    H       24.4370    0.1430    3.5110 H       2  LIG2        0.0293
     27    H       25.0590    0.3790    5.1050 H       2  LIG2        0.0293
     28    H       29.6300   -1.7200    2.7780 H       2  LIG2        0.0235
     29    H       30.5990   -0.2680    2.9950 H       2  LIG2        0.0235
     30    H       28.9890   -0.1590    2.3300 H       2  LIG2        0.0235
     31    H       30.0020   -2.3570    5.2920 H       2  LIG2        0.0235
     32    H       29.6120   -1.1950    6.5500 H       2  LIG2        0.0235
     33    H       30.9860   -0.9090    5.4960 H       2  LIG2        0.0235
     34    H       28.5750    4.5080    5.6770 H       2  LIG2        0.0268
     35    H       28.8530    5.2750    4.1200 H       2  LIG2        0.0268
     36    H       30.2870    2.7150    6.0130 H       2  LIG2        0.0233
     37    H       31.2000    3.6790    4.8640 H       2  LIG2        0.0233
     38    H       31.0150    1.9520    4.5990 H       2  LIG2        0.0233
     39    H       24.0490    2.7400    5.1590 H       2  LIG2        0.0257
     40    H       23.3780    2.3330    3.5850 H       2  LIG2        0.0257
     41    H       24.2960    3.8100    3.7860 H       2  LIG2        0.0257
     42    H       24.9910    1.6450    1.9080 H       2  LIG2        0.2102
@<TRIPOS>BOND
     1    42     1    1
     2    30    12    1
     3     1     9    1
     4    21     7    1
     5    28    12    1
     6    29    12    1
     7    12     3    1
     8    19     5    1
     9    23     8    1
    10    24    10    1
    11    26    11    1
    12    40    16    1
    13    22     7    1
    14     9    11    1
    15     9    16    1
    16     9     6    1
    17     7    11    1
    18     7     4    1
    19    41    16    1
    20    11    27    1
    21    16    39    1
    22     5     8    1
    23     5     6    1
    24     5     2    1
    25    35    14    1
    26     8    14    1
    27     8    15    1
    28    10     6    1
    29    10    14    1
    30    10    25    1
    31     6    20    1
    32     3     4    1
    33     3     2    1
    34     3    13    1
    35    14    34    1
    36    38    15    1
    37     4     2    1
    38     4    18    1
    39    37    15    1
    40    15    36    1
    41     2    17    1
    42    31    13    1
    43    33    13    1
    44    13    32    1
@<TRIPOS>MOLECULE
11996452_9_run_18.pdb
 42 44 0 0 0
SMALL
GASTEIGER

@<TRIPOS>ATOM
      1    O       26.7760   -0.1240    2.3470 O.3     2  LIG2       -0.3886
      2    C       29.5920   -0.2560    3.3760 C.3     2  LIG2       -0.0289
      3    C       30.3850   -1.3830    4.0540 C.3     2  LIG2       -0.0284
      4    C       28.8760   -1.4800    3.9550 C.3     2  LIG2       -0.0319
      5    C       29.2170    1.1730    3.9010 C.3     2  LIG2       -0.0294
      6    C       27.7340    1.6260    3.6870 C.3     2  LIG2       -0.0090
      7    C       27.8870   -1.2340    5.1150 C.3     2  LIG2       -0.0468
      8    C       29.6610    1.6760    5.3060 C.3     2  LIG2       -0.0404
      9    C       26.5930    0.5420    3.5880 C.3     2  LIG2        0.0664
     10    C       27.5320    2.7370    4.7390 C.3     2  LIG2       -0.0471
     11    C       26.5630   -0.5530    4.7000 C.3     2  LIG2       -0.0237
     12    C       31.1990   -2.2760    3.0960 C.3     2  LIG2       -0.0593
     13    C       31.0570   -1.3120    5.4460 C.3     2  LIG2       -0.0593
     14    C       28.4400    2.3840    5.9100 C.3     2  LIG2       -0.0498
     15    C       30.9290    2.5520    5.2850 C.3     2  LIG2       -0.0621
     16    C       25.1820    1.1660    3.4520 C.3     2  LIG2       -0.0358
     17    H       29.6440   -0.2280    2.2860 H       2  LIG2        0.0312
     18    H       28.4890   -2.2310    3.2650 H       2  LIG2        0.0309
     19    H       29.7710    1.8120    3.2100 H       2  LIG2        0.0310
     20    H       27.7060    2.1440    2.7240 H       2  LIG2        0.0331
     21    H       27.6590   -2.1910    5.5880 H       2  LIG2        0.0269
     22    H       28.3280   -0.6400    5.9070 H       2  LIG2        0.0269
     23    H       29.8720    0.8620    5.9780 H       2  LIG2        0.0301
     24    H       27.8310    3.7010    4.3200 H       2  LIG2        0.0269
     25    H       26.5040    2.8540    5.0760 H       2  LIG2        0.0269
     26    H       25.8490   -1.3290    4.4160 H       2  LIG2        0.0293
     27    H       26.1440   -0.1100    5.6050 H       2  LIG2        0.0293
     28    H       31.3260   -3.2800    3.5030 H       2  LIG2        0.0235
     29    H       32.1890   -1.8570    2.9200 H       2  LIG2        0.0235
     30    H       30.7150   -2.3860    2.1230 H       2  LIG2        0.0235
     31    H       31.5120   -2.2710    5.7010 H       2  LIG2        0.0235
     32    H       30.3850   -1.1060    6.2730 H       2  LIG2        0.0235
     33    H       31.8560   -0.5710    5.4550 H       2  LIG2        0.0235
     34    H       27.9170    1.7170    6.5980 H       2  LIG2        0.0268
     35    H       28.7080    3.2750    6.4810 H       2  LIG2        0.0268
     36    H       30.7790    3.4580    4.6950 H       2  LIG2        0.0233
     37    H       31.7710    2.0100    4.8550 H       2  LIG2        0.0233
     38    H       31.2140    2.8570    6.2920 H       2  LIG2        0.0233
     39    H       24.8330    1.5970    4.3910 H       2  LIG2        0.0257
     40    H       24.4350    0.4250    3.1620 H       2  LIG2        0.0257
     41    H       25.1610    1.9560    2.7000 H       2  LIG2        0.0257
     42    H       26.1810   -0.8760    2.3140 H       2  LIG2        0.2102
@<TRIPOS>BOND
     1    30    12    1
     2    17     2    1
     3    42     1    1
     4     1     9    1
     5    41    16    1
     6    20     6    1
     7    29    12    1
     8    12    28    1
     9    12     3    1
    10    40    16    1
    11    19     5    1
    12    18     4    1
    13     2     5    1
    14     2     4    1
    15     2     3    1
    16    16     9    1
    17    16    39    1
    18     9     6    1
    19     9    11    1
    20     6     5    1
    21     6    10    1
    22     5     8    1
    23     4     3    1
    24     4     7    1
    25     3    13    1
    26    24    10    1
    27    26    11    1
    28    36    15    1
    29    11     7    1
    30    11    27    1
    31    10    25    1
    32    10    14    1
    33    37    15    1
    34     7    21    1
    35     7    22    1
    36    15     8    1
    37    15    38    1
    38     8    14    1
    39     8    23    1
    40    13    33    1
    41    13    31    1
    42    13    32    1
    43    14    35    1
    44    14    34    1
@<TRIPOS>MOLECULE
11996452_2_run_3.pdb
 42 44 0 0 0
SMALL
GASTEIGER

@<TRIPOS>ATOM
      1    O       24.6050    1.1180    4.5640 O.3     2  LIG2       -0.3886
      2    C       29.1170    1.5810    3.8640 C.3     2  LIG2       -0.0289
      3    C       29.5980    2.2650    5.1320 C.3     2  LIG2       -0.0284
      4    C       28.5830    2.9760    4.2570 C.3     2  LIG2       -0.0319
      5    C       28.2270    0.3000    3.7810 C.3     2  LIG2       -0.0294
      6    C       26.8010    0.2540    4.3840 C.3     2  LIG2       -0.0090
      7    C       27.1030    3.1840    4.6460 C.3     2  LIG2       -0.0468
      8    C       28.9380   -0.9630    4.3190 C.3     2  LIG2       -0.0404
      9    C       25.7200    1.1510    3.6860 C.3     2  LIG2        0.0664
     10    C       26.4920   -1.2560    4.4320 C.3     2  LIG2       -0.0471
     11    C       26.1280    2.6490    3.5790 C.3     2  LIG2       -0.0237
     12    C       29.2390    1.7720    6.5520 C.3     2  LIG2       -0.0593
     13    C       31.0390    2.8100    5.0930 C.3     2  LIG2       -0.0593
     14    C       27.8260   -1.9550    4.7120 C.3     2  LIG2       -0.0498
     15    C       29.9800   -1.5530    3.3510 C.3     2  LIG2       -0.0621
     16    C       25.2310    0.6510    2.3060 C.3     2  LIG2       -0.0358
     17    H       29.8400    1.5600    3.0470 H       2  LIG2        0.0312
     18    H       28.9620    3.8430    3.7140 H       2  LIG2        0.0309
     19    H       28.0740    0.1360    2.7130 H       2  LIG2        0.0310
     20    H       26.8530    0.5540    5.4260 H       2  LIG2        0.0331
     21    H       26.8570    2.8010    5.6350 H       2  LIG2        0.0269
     22    H       26.9430    4.2590    4.7240 H       2  LIG2        0.0269
     23    H       29.4660   -0.7020    5.2370 H       2  LIG2        0.0301
     24    H       25.7520   -1.4950    5.1980 H       2  LIG2        0.0269
     25    H       26.0990   -1.6190    3.4840 H       2  LIG2        0.0269
     26    H       25.2360    3.2780    3.5640 H       2  LIG2        0.0293
     27    H       26.5870    2.8260    2.6040 H       2  LIG2        0.0293
     28    H       29.3410    2.5850    7.2710 H       2  LIG2        0.0235
     29    H       29.9140    0.9760    6.8670 H       2  LIG2        0.0235
     30    H       28.2320    1.3930    6.6680 H       2  LIG2        0.0235
     31    H       31.1680    3.6340    5.7950 H       2  LIG2        0.0235
     32    H       31.3140    3.1820    4.1050 H       2  LIG2        0.0235
     33    H       31.7580    2.0320    5.3550 H       2  LIG2        0.0235
     34    H       27.8920   -2.8970    4.1680 H       2  LIG2        0.0268
     35    H       27.9030   -2.1990    5.7720 H       2  LIG2        0.0268
     36    H       29.5220   -1.8560    2.4090 H       2  LIG2        0.0233
     37    H       30.4640   -2.4290    3.7820 H       2  LIG2        0.0233
     38    H       30.7620   -0.8270    3.1220 H       2  LIG2        0.0233
     39    H       26.0550    0.5560    1.5980 H       2  LIG2        0.0257
     40    H       24.5090    1.3410    1.8680 H       2  LIG2        0.0257
     41    H       24.7320   -0.3160    2.3630 H       2  LIG2        0.0257
     42    H       24.8930    1.4050    5.4330 H       2  LIG2        0.2102
@<TRIPOS>BOND
     1    39    16    1
     2    40    16    1
     3    16    41    1
     4    16     9    1
     5    36    15    1
     6    27    11    1
     7    19     5    1
     8    17     2    1
     9    38    15    1
    10    15    37    1
    11    15     8    1
    12    25    10    1
    13    26    11    1
    14    11     9    1
    15    11     7    1
    16     9     6    1
    17     9     1    1
    18    18     4    1
    19     5     2    1
    20     5     8    1
    21     5     6    1
    22     2     4    1
    23     2     3    1
    24    32    13    1
    25    34    14    1
    26     4     7    1
    27     4     3    1
    28     8    14    1
    29     8    23    1
    30     6    10    1
    31     6    20    1
    32    10    14    1
    33    10    24    1
    34     1    42    1
    35     7    22    1
    36     7    21    1
    37    14    35    1
    38    13     3    1
    39    13    33    1
    40    13    31    1
    41     3    12    1
    42    12    30    1
    43    12    29    1
    44    12    28    1
@<TRIPOS>MOLECULE
11996452_7_run_2.pdb
 42 44 0 0 0
SMALL
GASTEIGER

@<TRIPOS>ATOM
      1    O       26.1220    1.7630    2.3880 O.3     2  LIG2       -0.3886
      2    C       28.5780    0.6150    3.5640 C.3     2  LIG2       -0.0289
      3    C       29.1190   -0.7490    3.9760 C.3     2  LIG2       -0.0284
      4    C       27.6580   -0.6110    3.6170 C.3     2  LIG2       -0.0319
      5    C       28.3360    1.7790    4.5710 C.3     2  LIG2       -0.0294
      6    C       26.9300    2.4770    4.5670 C.3     2  LIG2       -0.0090
      7    C       26.5020   -0.5740    4.6310 C.3     2  LIG2       -0.0468
      8    C       29.3900    2.9020    4.4080 C.3     2  LIG2       -0.0404
      9    C       25.7480    1.8320    3.7550 C.3     2  LIG2        0.0664
     10    C       27.2280    3.9530    4.2410 C.3     2  LIG2       -0.0471
     11    C       25.3660    0.3920    4.2290 C.3     2  LIG2       -0.0237
     12    C       30.0240   -1.4580    2.9520 C.3     2  LIG2       -0.0593
     13    C       29.5510   -1.0580    5.4280 C.3     2  LIG2       -0.0593
     14    C       28.6510    4.2000    4.7350 C.3     2  LIG2       -0.0498
     15    C       30.6600    2.6800    5.2500 C.3     2  LIG2       -0.0621
     16    C       24.4720    2.7080    3.7970 C.3     2  LIG2       -0.0358
     17    H       28.8160    0.9830    2.5650 H       2  LIG2        0.0312
     18    H       27.3470   -1.0680    2.6770 H       2  LIG2        0.0309
     19    H       28.4430    1.3920    5.5830 H       2  LIG2        0.0310
     20    H       26.5840    2.4800    5.6040 H       2  LIG2        0.0331
     21    H       26.0940   -1.5790    4.7400 H       2  LIG2        0.0269
     22    H       26.8480   -0.2980    5.6250 H       2  LIG2        0.0269
     23    H       29.6910    2.9720    3.3610 H       2  LIG2        0.0301
     24    H       27.1670    4.1350    3.1660 H       2  LIG2        0.0269
     25    H       26.5240    4.6320    4.7250 H       2  LIG2        0.0269
     26    H       24.7450   -0.0890    3.4710 H       2  LIG2        0.0293
     27    H       24.7220    0.4740    5.1050 H       2  LIG2        0.0293
     28    H       29.9960   -2.5400    3.0870 H       2  LIG2        0.0235
     29    H       31.0600   -1.1340    3.0550 H       2  LIG2        0.0235
     30    H       29.7220   -1.2530    1.9240 H       2  LIG2        0.0235
     31    H       29.5440   -2.1330    5.6080 H       2  LIG2        0.0235
     32    H       28.9180   -0.6140    6.1920 H       2  LIG2        0.0235
     33    H       30.5650   -0.7000    5.6100 H       2  LIG2        0.0235
     34    H       28.6540    4.3930    5.8100 H       2  LIG2        0.0268
     35    H       29.0990    5.0650    4.2430 H       2  LIG2        0.0268
     36    H       30.4300    2.6220    6.3160 H       2  LIG2        0.0233
     37    H       31.3710    3.4950    5.1090 H       2  LIG2        0.0233
     38    H       31.1600    1.7540    4.9680 H       2  LIG2        0.0233
     39    H       24.1330    2.8650    4.8210 H       2  LIG2        0.0257
     40    H       23.6490    2.2480    3.2470 H       2  LIG2        0.0257
     41    H       24.6340    3.6920    3.3550 H       2  LIG2        0.0257
     42    H       25.4080    1.3510    1.8990 H       2  LIG2        0.2102
@<TRIPOS>BOND
     1    42     1    1
     2    30    12    1
     3     1     9    1
     4    17     2    1
     5    18     4    1
     6    12    29    1
     7    12    28    1
     8    12     3    1
     9    24    10    1
    10    40    16    1
    11    41    16    1
    12    23     8    1
    13    26    11    1
    14     2     4    1
    15     2     3    1
    16     2     5    1
    17     4     3    1
    18     4     7    1
    19     9    16    1
    20     9    11    1
    21     9     6    1
    22    16    39    1
    23     3    13    1
    24    11     7    1
    25    11    27    1
    26    10     6    1
    27    10    25    1
    28    10    14    1
    29    35    14    1
    30     8     5    1
    31     8    14    1
    32     8    15    1
    33     6     5    1
    34     6    20    1
    35     5    19    1
    36     7    21    1
    37     7    22    1
    38    14    34    1
    39    38    15    1
    40    37    15    1
    41    15    36    1
    42    13    31    1
    43    13    33    1
    44    13    32    1
@<TRIPOS>MOLECULE
11996452_5_run_17.pdb
 42 44 0 0 0
SMALL
GASTEIGER

@<TRIPOS>ATOM
      1    O       27.3120    3.1740    5.9170 O.3     2  LIG2       -0.3886
      2    C       29.2640   -0.5120    5.1840 C.3     2  LIG2       -0.0289
      3    C       30.2930   -0.8410    4.1170 C.3     2  LIG2       -0.0284
      4    C       30.5880    0.2820    5.1010 C.3     2  LIG2       -0.0319
      5    C       27.8530    0.1460    5.0130 C.3     2  LIG2       -0.0294
      6    C       27.6670    1.4460    4.1860 C.3     2  LIG2       -0.0090
      7    C       30.5990    1.7810    4.7140 C.3     2  LIG2       -0.0468
      8    C       26.6900   -0.8140    4.6170 C.3     2  LIG2       -0.0404
      9    C       28.1760    2.7580    4.8700 C.3     2  LIG2        0.0664
     10    C       26.1760    1.4330    3.8020 C.3     2  LIG2       -0.0471
     11    C       29.5890    2.6340    5.5050 C.3     2  LIG2       -0.0237
     12    C       31.0690   -2.1560    4.3340 C.3     2  LIG2       -0.0593
     13    C       30.1270   -0.5570    2.6040 C.3     2  LIG2       -0.0593
     14    C       25.8380   -0.0410    3.5980 C.3     2  LIG2       -0.0498
     15    C       27.0960   -2.2060    4.0880 C.3     2  LIG2       -0.0621
     16    C       28.1700    3.9270    3.8570 C.3     2  LIG2       -0.0358
     17    H       29.2050   -1.2280    6.0050 H       2  LIG2        0.0312
     18    H       31.3590    0.0680    5.8420 H       2  LIG2        0.0309
     19    H       27.6060    0.4490    6.0330 H       2  LIG2        0.0310
     20    H       28.1900    1.3520    3.2450 H       2  LIG2        0.0331
     21    H       31.5940    2.1580    4.9540 H       2  LIG2        0.0269
     22    H       30.5000    1.9500    3.6450 H       2  LIG2        0.0269
     23    H       26.0730   -0.9870    5.5010 H       2  LIG2        0.0301
     24    H       25.5520    1.8500    4.5940 H       2  LIG2        0.0269
     25    H       25.9800    2.0110    2.8970 H       2  LIG2        0.0269
     26    H       29.5180    2.2110    6.5100 H       2  LIG2        0.0293
     27    H       30.0140    3.6290    5.6500 H       2  LIG2        0.0293
     28    H       32.0420   -2.1240    3.8460 H       2  LIG2        0.0235
     29    H       30.5180   -3.0040    3.9270 H       2  LIG2        0.0235
     30    H       31.2460   -2.3630    5.3900 H       2  LIG2        0.0235
     31    H       31.0990   -0.5890    2.1120 H       2  LIG2        0.0235
     32    H       29.7110    0.4050    2.3430 H       2  LIG2        0.0235
     33    H       29.5070   -1.3150    2.1270 H       2  LIG2        0.0235
     34    H       26.0840   -0.3380    2.5770 H       2  LIG2        0.0268
     35    H       24.7710   -0.2230    3.7370 H       2  LIG2        0.0268
     36    H       27.6900   -2.1380    3.1790 H       2  LIG2        0.0233
     37    H       26.2140   -2.8020    3.8550 H       2  LIG2        0.0233
     38    H       27.6720   -2.7630    4.8270 H       2  LIG2        0.0233
     39    H       28.8410    3.7310    3.0200 H       2  LIG2        0.0257
     40    H       28.4890    4.8670    4.3120 H       2  LIG2        0.0257
     41    H       27.1770    4.0990    3.4410 H       2  LIG2        0.0257
     42    H       26.9680    2.3930    6.3550 H       2  LIG2        0.2102
@<TRIPOS>BOND
     1    31    13    1
     2    33    13    1
     3    32    13    1
     4    34    14    1
     5    13     3    1
     6    25    10    1
     7    39    16    1
     8    36    15    1
     9    20     6    1
    10    41    16    1
    11    14    35    1
    12    14    10    1
    13    14     8    1
    14    22     7    1
    15    10     6    1
    16    10    24    1
    17    28    12    1
    18    37    15    1
    19    16    40    1
    20    16     9    1
    21    29    12    1
    22    15     8    1
    23    15    38    1
    24     3    12    1
    25     3     4    1
    26     3     2    1
    27     6     9    1
    28     6     5    1
    29    12    30    1
    30     8     5    1
    31     8    23    1
    32     7    21    1
    33     7     4    1
    34     7    11    1
    35     9    11    1
    36     9     1    1
    37     5     2    1
    38     5    19    1
    39     4     2    1
    40     4    18    1
    41     2    17    1
    42    11    27    1
    43    11    26    1
    44     1    42    1
@<TRIPOS>MOLECULE
11996452_8_run_14.pdb
 42 44 0 0 0
SMALL
GASTEIGER

@<TRIPOS>ATOM
      1    O       29.3490    3.5740    6.5880 O.3     2  LIG2       -0.3886
      2    C       28.6370    0.1920    3.7210 C.3     2  LIG2       -0.0289
      3    C       28.7620   -1.3220    3.8600 C.3     2  LIG2       -0.0284
      4    C       29.6930   -0.4310    4.6460 C.3     2  LIG2       -0.0319
      5    C       27.4710    1.0140    4.3420 C.3     2  LIG2       -0.0294
      6    C       27.8100    2.1840    5.3290 C.3     2  LIG2       -0.0090
      7    C       29.5720   -0.1580    6.1560 C.3     2  LIG2       -0.0468
      8    C       26.5430    1.6130    3.2600 C.3     2  LIG2       -0.0404
      9    C       29.3090    2.4460    5.7250 C.3     2  LIG2        0.0664
     10    C       27.0300    3.4060    4.7960 C.3     2  LIG2       -0.0471
     11    C       29.9470    1.2840    6.5550 C.3     2  LIG2       -0.0237
     12    C       27.6840   -2.1710    4.5730 C.3     2  LIG2       -0.0593
     13    C       29.3660   -2.0690    2.6570 C.3     2  LIG2       -0.0593
     14    C       25.9140    2.8410    3.9200 C.3     2  LIG2       -0.0498
     15    C       25.5170    0.6090    2.7070 C.3     2  LIG2       -0.0621
     16    C       30.2390    2.8720    4.5560 C.3     2  LIG2       -0.0358
     17    H       29.0080    0.6410    2.8000 H       2  LIG2        0.0312
     18    H       30.7360   -0.4220    4.3260 H       2  LIG2        0.0309
     19    H       26.8520    0.3370    4.9280 H       2  LIG2        0.0310
     20    H       27.3190    1.9330    6.2730 H       2  LIG2        0.0331
     21    H       28.5650   -0.3570    6.5170 H       2  LIG2        0.0269
     22    H       30.2140   -0.8570    6.6940 H       2  LIG2        0.0269
     23    H       27.1460    1.9750    2.4240 H       2  LIG2        0.0301
     24    H       26.6210    4.0110    5.6050 H       2  LIG2        0.0269
     25    H       27.6660    4.0610    4.2020 H       2  LIG2        0.0269
     26    H       29.6640    1.3790    7.6060 H       2  LIG2        0.0293
     27    H       31.0360    1.3750    6.5420 H       2  LIG2        0.0293
     28    H       28.0990   -3.1260    4.8950 H       2  LIG2        0.0235
     29    H       26.8560   -2.3840    3.8970 H       2  LIG2        0.0235
     30    H       27.2560   -1.7080    5.4580 H       2  LIG2        0.0235
     31    H       29.8270   -3.0070    2.9680 H       2  LIG2        0.0235
     32    H       30.1350   -1.4820    2.1520 H       2  LIG2        0.0235
     33    H       28.5990   -2.3010    1.9170 H       2  LIG2        0.0235
     34    H       25.5710    3.5720    3.1870 H       2  LIG2        0.0268
     35    H       25.0550    2.5580    4.5310 H       2  LIG2        0.0268
     36    H       24.8670    0.2210    3.4930 H       2  LIG2        0.0233
     37    H       26.0140   -0.2410    2.2390 H       2  LIG2        0.0233
     38    H       24.8820    1.0730    1.9520 H       2  LIG2        0.0233
     39    H       30.4140    2.0790    3.8340 H       2  LIG2        0.0257
     40    H       31.2250    3.1650    4.9180 H       2  LIG2        0.0257
     41    H       29.8460    3.7250    4.0020 H       2  LIG2        0.0257
     42    H       29.0300    4.3370    6.1000 H       2  LIG2        0.2102
@<TRIPOS>BOND
     1    33    13    1
     2    38    15    1
     3    32    13    1
     4    37    15    1
     5    23     8    1
     6    13    31    1
     7    13     3    1
     8    15     8    1
     9    15    36    1
    10    17     2    1
    11    34    14    1
    12     8    14    1
    13     8     5    1
    14     2     3    1
    15     2     5    1
    16     2     4    1
    17    39    16    1
    18     3    12    1
    19     3     4    1
    20    29    12    1
    21    14    35    1
    22    14    10    1
    23    41    16    1
    24    25    10    1
    25    18     4    1
    26     5    19    1
    27     5     6    1
    28    16    40    1
    29    16     9    1
    30    12    28    1
    31    12    30    1
    32     4     7    1
    33    10     6    1
    34    10    24    1
    35     6     9    1
    36     6    20    1
    37     9    11    1
    38     9     1    1
    39    42     1    1
    40     7    21    1
    41     7    11    1
    42     7    22    1
    43    27    11    1
    44    11    26    1
@<TRIPOS>MOLECULE
11996452_run_12.pdb
 42 44 0 0 0
SMALL
GASTEIGER

@<TRIPOS>ATOM
      1    O       29.2280    3.7210    6.4830 O.3     2  LIG2       -0.3886
      2    C       28.3810    0.2840    3.7810 C.3     2  LIG2       -0.0289
      3    C       28.7000   -1.2050    3.8220 C.3     2  LIG2       -0.0284
      4    C       29.6330   -0.2350    4.5050 C.3     2  LIG2       -0.0319
      5    C       27.2550    0.9400    4.6330 C.3     2  LIG2       -0.0294
      6    C       27.6580    2.2660    5.3610 C.3     2  LIG2       -0.0090
      7    C       29.7050   -0.0090    6.0280 C.3     2  LIG2       -0.0468
      8    C       25.9880    1.3040    3.8200 C.3     2  LIG2       -0.0404
      9    C       29.1750    2.5780    5.6440 C.3     2  LIG2        0.0664
     10    C       26.8500    3.3930    4.6690 C.3     2  LIG2       -0.0471
     11    C       29.9330    1.4630    6.4380 C.3     2  LIG2       -0.0237
     12    C       27.8510   -2.2060    4.6410 C.3     2  LIG2       -0.0593
     13    C       29.1900   -1.8310    2.5020 C.3     2  LIG2       -0.0593
     14    C       26.1910    2.7710    3.4380 C.3     2  LIG2       -0.0498
     15    C       25.6470    0.3810    2.6320 C.3     2  LIG2       -0.0621
     16    C       29.9970    3.0230    4.4010 C.3     2  LIG2       -0.0358
     17    H       28.5430    0.8120    2.8410 H       2  LIG2        0.0312
     18    H       30.6090   -0.0980    4.0370 H       2  LIG2        0.0309
     19    H       26.9380    0.2320    5.3970 H       2  LIG2        0.0310
     20    H       27.2110    2.1730    6.3550 H       2  LIG2        0.0331
     21    H       28.8060   -0.3640    6.5260 H       2  LIG2        0.0269
     22    H       30.5110   -0.6210    6.4360 H       2  LIG2        0.0269
     23    H       25.1330    1.2580    4.4980 H       2  LIG2        0.0301
     24    H       26.0790    3.7640    5.3470 H       2  LIG2        0.0269
     25    H       27.4480    4.2610    4.3940 H       2  LIG2        0.0269
     26    H       29.6650    1.5210    7.4960 H       2  LIG2        0.0293
     27    H       31.0060    1.6620    6.4050 H       2  LIG2        0.0293
     28    H       28.4260   -3.1070    4.8580 H       2  LIG2        0.0235
     29    H       26.9670   -2.5080    4.0810 H       2  LIG2        0.0235
     30    H       27.5030   -1.8260    5.5980 H       2  LIG2        0.0235
     31    H       29.7990   -2.7160    2.6900 H       2  LIG2        0.0235
     32    H       29.7980   -1.1370    1.9200 H       2  LIG2        0.0235
     33    H       28.3490   -2.1280    1.8750 H       2  LIG2        0.0235
     34    H       26.8470    2.8560    2.5690 H       2  LIG2        0.0268
     35    H       25.2510    3.2650    3.1920 H       2  LIG2        0.0268
     36    H       26.4060    0.4160    1.8510 H       2  LIG2        0.0233
     37    H       24.6980    0.6690    2.1780 H       2  LIG2        0.0233
     38    H       25.5510   -0.6560    2.9570 H       2  LIG2        0.0233
     39    H       30.1050    2.2470    3.6490 H       2  LIG2        0.0257
     40    H       31.0130    3.3130    4.6790 H       2  LIG2        0.0257
     41    H       29.5620    3.8850    3.8980 H       2  LIG2        0.0257
     42    H       28.8490    4.4640    6.0080 H       2  LIG2        0.2102
@<TRIPOS>BOND
     1    36    15    1
     2    33    13    1
     3    32    13    1
     4    37    15    1
     5    13    31    1
     6    13     3    1
     7    34    14    1
     8    15    38    1
     9    15     8    1
    10    17     2    1
    11    35    14    1
    12    14     8    1
    13    14    10    1
    14    39    16    1
    15     2     3    1
    16     2     4    1
    17     2     5    1
    18     8    23    1
    19     8     5    1
    20     3     4    1
    21     3    12    1
    22    41    16    1
    23    18     4    1
    24    29    12    1
    25    25    10    1
    26    16    40    1
    27    16     9    1
    28     4     7    1
    29     5     6    1
    30     5    19    1
    31    12    28    1
    32    12    30    1
    33    10    24    1
    34    10     6    1
    35     6     9    1
    36     6    20    1
    37     9    11    1
    38     9     1    1
    39    42     1    1
    40     7    22    1
    41     7    11    1
    42     7    21    1
    43    27    11    1
    44    11    26    1
@<TRIPOS>MOLECULE
11996452_3_run_21.pdb
 42 44 0 0 0
SMALL
GASTEIGER

@<TRIPOS>ATOM
      1    O       26.4420    4.3620    3.1050 O.3     2  LIG2       -0.3886
      2    C       28.4750    0.3120    3.6840 C.3     2  LIG2       -0.0289
      3    C       27.8640   -1.0480    3.9820 C.3     2  LIG2       -0.0284
      4    C       27.1810   -0.1300    2.9900 C.3     2  LIG2       -0.0319
      5    C       28.4360    1.5030    4.6760 C.3     2  LIG2       -0.0294
      6    C       28.0790    2.8500    3.9980 C.3     2  LIG2       -0.0090
      7    C       25.8610    0.6170    3.2760 C.3     2  LIG2       -0.0468
      8    C       29.7940    1.7190    5.3950 C.3     2  LIG2       -0.0404
      9    C       26.5490    3.1160    3.7750 C.3     2  LIG2        0.0664
     10    C       28.8120    3.9000    4.8550 C.3     2  LIG2       -0.0471
     11    C       25.8720    2.0910    2.8190 C.3     2  LIG2       -0.0237
     12    C       28.5990   -2.2710    3.4020 C.3     2  LIG2       -0.0593
     13    C       27.2280   -1.3650    5.3540 C.3     2  LIG2       -0.0593
     14    C       30.0990    3.2250    5.3220 C.3     2  LIG2       -0.0498
     15    C       29.8360    1.1460    6.8230 C.3     2  LIG2       -0.0621
     16    C       25.7120    3.2740    5.0710 C.3     2  LIG2       -0.0358
     17    H       29.3610    0.3470    3.0490 H       2  LIG2        0.0312
     18    H       27.2300   -0.4460    1.9460 H       2  LIG2        0.0309
     19    H       27.6880    1.3340    5.4450 H       2  LIG2        0.0310
     20    H       28.5600    2.8640    3.0160 H       2  LIG2        0.0331
     21    H       25.0740    0.1020    2.7230 H       2  LIG2        0.0269
     22    H       25.5590    0.5500    4.3180 H       2  LIG2        0.0269
     23    H       30.5830    1.2180    4.8300 H       2  LIG2        0.0301
     24    H       29.0250    4.8090    4.2920 H       2  LIG2        0.0269
     25    H       28.2250    4.1910    5.7260 H       2  LIG2        0.0269
     26    H       26.3490    2.1320    1.8380 H       2  LIG2        0.0293
     27    H       24.8360    2.3930    2.6480 H       2  LIG2        0.0293
     28    H       27.9140   -3.1070    3.2610 H       2  LIG2        0.0235
     29    H       29.3970   -2.5990    4.0680 H       2  LIG2        0.0235
     30    H       29.0530   -2.0570    2.4340 H       2  LIG2        0.0235
     31    H       26.5060   -2.1780    5.2620 H       2  LIG2        0.0235
     32    H       26.7010   -0.5310    5.8120 H       2  LIG2        0.0235
     33    H       27.9900   -1.6830    6.0660 H       2  LIG2        0.0235
     34    H       30.4330    3.6350    6.2760 H       2  LIG2        0.0268
     35    H       30.8980    3.4090    4.6020 H       2  LIG2        0.0268
     36    H       29.0890    1.6180    7.4630 H       2  LIG2        0.0233
     37    H       30.8130    1.3050    7.2820 H       2  LIG2        0.0233
     38    H       29.6440    0.0730    6.8220 H       2  LIG2        0.0233
     39    H       25.7620    2.3930    5.7100 H       2  LIG2        0.0257
     40    H       24.6570    3.4390    4.8450 H       2  LIG2        0.0257
     41    H       26.0300    4.1240    5.6730 H       2  LIG2        0.0257
     42    H       26.7720    5.0490    3.6880 H       2  LIG2        0.2102
@<TRIPOS>BOND
     1    26    11    1
     2    18     4    1
     3    30    12    1
     4    27    11    1
     5    21     7    1
     6    11     7    1
     7    11     9    1
     8     4     7    1
     9     4     2    1
    10     4     3    1
    11    20     6    1
    12    17     2    1
    13     1    42    1
    14     1     9    1
    15    28    12    1
    16     7    22    1
    17    12     3    1
    18    12    29    1
    19     2     3    1
    20     2     5    1
    21     9     6    1
    22     9    16    1
    23     3    13    1
    24     6     5    1
    25     6    10    1
    26    24    10    1
    27    35    14    1
    28     5     8    1
    29     5    19    1
    30    23     8    1
    31    40    16    1
    32    10    14    1
    33    10    25    1
    34    16    41    1
    35    16    39    1
    36    31    13    1
    37    14     8    1
    38    14    34    1
    39    13    32    1
    40    13    33    1
    41     8    15    1
    42    38    15    1
    43    15    37    1
    44    15    36    1
@<TRIPOS>MOLECULE
11996452_6_run_18.pdb
 42 44 0 0 0
SMALL
GASTEIGER

@<TRIPOS>ATOM
      1    O       30.6290   -1.4950    5.1060 O.3     2  LIG2       -0.3886
      2    C       27.2460    0.6630    3.0440 C.3     2  LIG2       -0.0289
      3    C       25.7380    0.7760    3.3110 C.3     2  LIG2       -0.0284
      4    C       26.5080   -0.4190    3.8380 C.3     2  LIG2       -0.0319
      5    C       28.4480    1.4160    3.7090 C.3     2  LIG2       -0.0294
      6    C       29.6710    0.5390    4.1340 C.3     2  LIG2       -0.0090
      7    C       26.9250   -0.6300    5.3070 C.3     2  LIG2       -0.0468
      8    C       28.2320    2.4890    4.8180 C.3     2  LIG2       -0.0404
      9    C       29.4510   -0.9790    4.5030 C.3     2  LIG2        0.0664
     10    C       30.3920    1.4090    5.1890 C.3     2  LIG2       -0.0471
     11    C       28.2950   -1.3160    5.5010 C.3     2  LIG2       -0.0237
     12    C       25.0590    1.7490    4.3050 C.3     2  LIG2       -0.0593
     13    C       24.8370    0.5270    2.0840 C.3     2  LIG2       -0.0593
     14    C       29.3090    2.2250    5.8810 C.3     2  LIG2       -0.0498
     15    C       28.2260    3.9390    4.2970 C.3     2  LIG2       -0.0621
     16    C       29.3540   -1.8690    3.2320 C.3     2  LIG2       -0.0358
     17    H       27.5210    0.3940    2.0230 H       2  LIG2        0.0312
     18    H       26.2870   -1.3720    3.3530 H       2  LIG2        0.0309
     19    H       28.8400    1.9930    2.8680 H       2  LIG2        0.0310
     20    H       30.3490    0.5170    3.2770 H       2  LIG2        0.0331
     21    H       26.9440    0.3010    5.8620 H       2  LIG2        0.0269
     22    H       26.1590   -1.2260    5.8050 H       2  LIG2        0.0269
     23    H       27.2960    2.3540    5.3340 H       2  LIG2        0.0301
     24    H       30.9640    0.8400    5.9220 H       2  LIG2        0.0269
     25    H       31.1010    2.0760    4.6970 H       2  LIG2        0.0269
     26    H       28.6160   -1.0740    6.5170 H       2  LIG2        0.0293
     27    H       28.1290   -2.3940    5.5020 H       2  LIG2        0.0293
     28    H       23.9820    1.5820    4.3300 H       2  LIG2        0.0235
     29    H       25.2120    2.7840    4.0000 H       2  LIG2        0.0235
     30    H       25.3690    1.6450    5.3400 H       2  LIG2        0.0235
     31    H       23.8610    0.1430    2.3830 H       2  LIG2        0.0235
     32    H       25.2670   -0.2000    1.3940 H       2  LIG2        0.0235
     33    H       24.6780    1.4490    1.5250 H       2  LIG2        0.0235
     34    H       29.7210    3.1440    6.3030 H       2  LIG2        0.0268
     35    H       28.8880    1.6570    6.7120 H       2  LIG2        0.0268
     36    H       29.1800    4.2030    3.8370 H       2  LIG2        0.0233
     37    H       28.0430    4.6490    5.1050 H       2  LIG2        0.0233
     38    H       27.4450    4.0850    3.5500 H       2  LIG2        0.0233
     39    H       28.4990   -1.6370    2.6040 H       2  LIG2        0.0257
     40    H       29.2760   -2.9300    3.4800 H       2  LIG2        0.0257
     41    H       30.2350   -1.7600    2.5980 H       2  LIG2        0.0257
     42    H       31.3860   -1.1970    4.5950 H       2  LIG2        0.2102
@<TRIPOS>BOND
     1    32    13    1
     2    33    13    1
     3    17     2    1
     4    13    31    1
     5    13     3    1
     6    41    16    1
     7    39    16    1
     8    19     5    1
     9     2     3    1
    10     2     5    1
    11     2     4    1
    12    16    40    1
    13    16     9    1
    14    20     6    1
    15     3     4    1
    16     3    12    1
    17    18     4    1
    18    38    15    1
    19     5     6    1
    20     5     8    1
    21    36    15    1
    22     4     7    1
    23    29    12    1
    24     6     9    1
    25     6    10    1
    26    15     8    1
    27    15    37    1
    28    12    28    1
    29    12    30    1
    30     9     1    1
    31     9    11    1
    32    42     1    1
    33    25    10    1
    34     8    23    1
    35     8    14    1
    36    10    14    1
    37    10    24    1
    38     7    11    1
    39     7    22    1
    40     7    21    1
    41    11    27    1
    42    11    26    1
    43    14    34    1
    44    14    35    1
@<TRIPOS>MOLECULE
5281519_run_20.pdb
 39 39 0 0 0
SMALL
GASTEIGER

@<TRIPOS>ATOM
      1    C       27.3800    3.4630    3.7700 C.3     2  LIG2       -0.0275
      2    C       26.2000    2.4660    3.7750 C.2     2  LIG2       -0.0668
      3    C       28.2690    3.5220    5.0500 C.3     2  LIG2       -0.0283
      4    C       26.4200    1.2100    2.9040 C.3     2  LIG2       -0.0130
      5    C       29.2010    2.3300    5.2310 C.2     2  LIG2       -0.0762
      6    C       29.0480   -0.9540    4.8620 C.3     2  LIG2       -0.0286
      7    C       29.4810   -0.0800    6.0780 C.3     2  LIG2       -0.0308
      8    C       27.6860   -0.5580    4.2860 C.2     2  LIG2       -0.0759
      9    C       25.0550    2.7040    4.4780 C.2     2  LIG2       -0.0762
     10    C       27.6270    0.3970    3.3310 C.2     2  LIG2       -0.0810
     11    C       28.8710    1.3200    6.0650 C.2     2  LIG2       -0.0847
     12    C       30.4270    2.3200    4.3250 C.3     2  LIG2       -0.0438
     13    C       26.4830   -1.1210    5.0290 C.3     2  LIG2       -0.0438
     14    C       24.8300    3.9410    5.3460 C.3     2  LIG2       -0.0438
     15    C       23.8310    1.7910    4.4840 C.3     2  LIG2       -0.0438
     16    H       27.9990    3.2870    2.8890 H       2  LIG2        0.0313
     17    H       26.9690    4.4560    3.5920 H       2  LIG2        0.0313
     18    H       28.8810    4.4250    5.0280 H       2  LIG2        0.0313
     19    H       27.6380    3.6270    5.9330 H       2  LIG2        0.0313
     20    H       25.5640    0.5440    2.8990 H       2  LIG2        0.0352
     21    H       26.5420    1.5120    1.8630 H       2  LIG2        0.0352
     22    H       29.7970   -0.8400    4.0770 H       2  LIG2        0.0313
     23    H       29.0600   -2.0160    5.1140 H       2  LIG2        0.0313
     24    H       29.1520   -0.5580    7.0020 H       2  LIG2        0.0310
     25    H       30.5680   -0.0260    6.1510 H       2  LIG2        0.0310
     26    H       28.5550    0.7540    2.9100 H       2  LIG2        0.0575
     27    H       27.9630    1.4110    6.6430 H       2  LIG2        0.0572
     28    H       30.1450    2.4580    3.2810 H       2  LIG2        0.0274
     29    H       30.9930    1.3930    4.3910 H       2  LIG2        0.0274
     30    H       31.0990    3.1320    4.6050 H       2  LIG2        0.0274
     31    H       26.3820   -2.1850    4.8170 H       2  LIG2        0.0274
     32    H       25.5480   -0.6410    4.7500 H       2  LIG2        0.0274
     33    H       26.6050   -0.9950    6.1050 H       2  LIG2        0.0274
     34    H       23.9570    4.4930    4.9980 H       2  LIG2        0.0274
     35    H       25.6600    4.6430    5.3550 H       2  LIG2        0.0274
     36    H       24.6550    3.6410    6.3790 H       2  LIG2        0.0274
     37    H       22.9120    2.3760    4.5360 H       2  LIG2        0.0274
     38    H       23.8580    1.1430    5.3600 H       2  LIG2        0.0274
     39    H       23.7340    1.1650    3.5990 H       2  LIG2        0.0274
@<TRIPOS>BOND
     1    21     4    1
     2    16     1    1
     3    20     4    1
     4     4    10    1
     5     4     2    1
     6    26    10    1
     7    28    12    1
     8    10     8    2
     9    17     1    1
    10    39    15    1
    11     1     2    1
    12     1     3    1
    13     2     9    2
    14    22     6    1
    15     8     6    1
    16     8    13    1
    17    12    29    1
    18    12    30    1
    19    12     5    1
    20     9    15    1
    21     9    14    1
    22    15    37    1
    23    15    38    1
    24    32    13    1
    25    31    13    1
    26     6    23    1
    27     6     7    1
    28    34    14    1
    29    18     3    1
    30    13    33    1
    31     3     5    1
    32     3    19    1
    33     5    11    2
    34    14    35    1
    35    14    36    1
    36    11     7    1
    37    11    27    1
    38     7    25    1
    39     7    24    1
@<TRIPOS>MOLECULE
11996452_1_run_5.pdb
 42 44 0 0 0
SMALL
GASTEIGER

@<TRIPOS>ATOM
      1    O       28.2540    2.8540    6.3160 O.3     2  LIG2       -0.3886
      2    C       29.1190   -0.3540    5.2240 C.3     2  LIG2       -0.0289
      3    C       30.1120   -0.5920    4.0970 C.3     2  LIG2       -0.0284
      4    C       30.4010    0.4990    5.1050 C.3     2  LIG2       -0.0319
      5    C       27.6210    0.1110    5.1330 C.3     2  LIG2       -0.0294
      6    C       27.1410    1.5020    4.6410 C.3     2  LIG2       -0.0090
      7    C       30.5170    1.9960    4.7310 C.3     2  LIG2       -0.0468
      8    C       26.6610   -0.8590    4.3940 C.3     2  LIG2       -0.0404
      9    C       28.0010    2.7650    4.9210 C.3     2  LIG2        0.0664
     10    C       26.5970    1.3020    3.2100 C.3     2  LIG2       -0.0471
     11    C       29.3420    2.8050    4.1580 C.3     2  LIG2       -0.0237
     12    C       30.9880   -1.8570    4.2030 C.3     2  LIG2       -0.0593
     13    C       29.7930   -0.2630    2.6290 C.3     2  LIG2       -0.0593
     14    C       26.3740   -0.2070    3.0300 C.3     2  LIG2       -0.0498
     15    C       27.0980   -2.3340    4.3060 C.3     2  LIG2       -0.0621
     16    C       27.2000    4.0500    4.5980 C.3     2  LIG2       -0.0358
     17    H       29.1600   -1.1140    6.0070 H       2  LIG2        0.0312
     18    H       31.1120    0.2870    5.9050 H       2  LIG2        0.0309
     19    H       27.3260    0.0850    6.1840 H       2  LIG2        0.0310
     20    H       26.2310    1.6810    5.2240 H       2  LIG2        0.0331
     21    H       30.8720    2.5190    5.6220 H       2  LIG2        0.0269
     22    H       31.3490    2.0860    4.0330 H       2  LIG2        0.0269
     23    H       25.7180   -0.8620    4.9450 H       2  LIG2        0.0301
     24    H       25.6490    1.8310    3.0950 H       2  LIG2        0.0269
     25    H       27.2500    1.7040    2.4380 H       2  LIG2        0.0269
     26    H       29.6900    3.8400    4.1260 H       2  LIG2        0.0293
     27    H       29.1930    2.5820    3.1050 H       2  LIG2        0.0293
     28    H       31.9230   -1.7320    3.6560 H       2  LIG2        0.0235
     29    H       30.4750   -2.7260    3.7920 H       2  LIG2        0.0235
     30    H       31.2490   -2.0940    5.2350 H       2  LIG2        0.0235
     31    H       30.7050   -0.0220    2.0800 H       2  LIG2        0.0235
     32    H       29.1220    0.5740    2.5100 H       2  LIG2        0.0235
     33    H       29.3290   -1.1140    2.1300 H       2  LIG2        0.0235
     34    H       27.0220   -0.6060    2.2510 H       2  LIG2        0.0268
     35    H       25.3500   -0.4110    2.7130 H       2  LIG2        0.0268
     36    H       27.9950   -2.4610    3.7020 H       2  LIG2        0.0233
     37    H       26.3160   -2.9450    3.8550 H       2  LIG2        0.0233
     38    H       27.3010   -2.7450    5.2960 H       2  LIG2        0.0233
     39    H       26.9790    4.1240    3.5320 H       2  LIG2        0.0257
     40    H       27.7450    4.9550    4.8750 H       2  LIG2        0.0257
     41    H       26.2460    4.0780    5.1280 H       2  LIG2        0.0257
     42    H       28.7230    2.0630    6.5900 H       2  LIG2        0.2102
@<TRIPOS>BOND
     1    31    13    1
     2    33    13    1
     3    34    14    1
     4    25    10    1
     5    32    13    1
     6    13     3    1
     7    35    14    1
     8    14    10    1
     9    14     8    1
    10    24    10    1
    11    27    11    1
    12    10     6    1
    13    39    16    1
    14    28    12    1
    15    36    15    1
    16    29    12    1
    17    37    15    1
    18    22     7    1
    19     3    12    1
    20     3     4    1
    21     3     2    1
    22    26    11    1
    23    11     7    1
    24    11     9    1
    25    12    30    1
    26    15     8    1
    27    15    38    1
    28     8    23    1
    29     8     5    1
    30    16    40    1
    31    16     9    1
    32    16    41    1
    33     6     9    1
    34     6     5    1
    35     6    20    1
    36     7     4    1
    37     7    21    1
    38     9     1    1
    39     4     2    1
    40     4    18    1
    41     5     2    1
    42     5    19    1
    43     2    17    1
    44     1    42    1
