@<TRIPOS>MOLECULE
11996452_6_run_18.pdb
 42 44 0 0 0
SMALL
GASTEIGER

@<TRIPOS>ATOM
      1    O       30.6290   -1.4950    5.1060 O.3     2  LIG2       -0.3886
      2    C       27.2460    0.6630    3.0440 C.3     2  LIG2       -0.0289
      3    C       25.7380    0.7760    3.3110 C.3     2  LIG2       -0.0284
      4    C       26.5080   -0.4190    3.8380 C.3     2  LIG2       -0.0319
      5    C       28.4480    1.4160    3.7090 C.3     2  LIG2       -0.0294
      6    C       29.6710    0.5390    4.1340 C.3     2  LIG2       -0.0090
      7    C       26.9250   -0.6300    5.3070 C.3     2  LIG2       -0.0468
      8    C       28.2320    2.4890    4.8180 C.3     2  LIG2       -0.0404
      9    C       29.4510   -0.9790    4.5030 C.3     2  LIG2        0.0664
     10    C       30.3920    1.4090    5.1890 C.3     2  LIG2       -0.0471
     11    C       28.2950   -1.3160    5.5010 C.3     2  LIG2       -0.0237
     12    C       25.0590    1.7490    4.3050 C.3     2  LIG2       -0.0593
     13    C       24.8370    0.5270    2.0840 C.3     2  LIG2       -0.0593
     14    C       29.3090    2.2250    5.8810 C.3     2  LIG2       -0.0498
     15    C       28.2260    3.9390    4.2970 C.3     2  LIG2       -0.0621
     16    C       29.3540   -1.8690    3.2320 C.3     2  LIG2       -0.0358
     17    H       27.5210    0.3940    2.0230 H       2  LIG2        0.0312
     18    H       26.2870   -1.3720    3.3530 H       2  LIG2        0.0309
     19    H       28.8400    1.9930    2.8680 H       2  LIG2        0.0310
     20    H       30.3490    0.5170    3.2770 H       2  LIG2        0.0331
     21    H       26.9440    0.3010    5.8620 H       2  LIG2        0.0269
     22    H       26.1590   -1.2260    5.8050 H       2  LIG2        0.0269
     23    H       27.2960    2.3540    5.3340 H       2  LIG2        0.0301
     24    H       30.9640    0.8400    5.9220 H       2  LIG2        0.0269
     25    H       31.1010    2.0760    4.6970 H       2  LIG2        0.0269
     26    H       28.6160   -1.0740    6.5170 H       2  LIG2        0.0293
     27    H       28.1290   -2.3940    5.5020 H       2  LIG2        0.0293
     28    H       23.9820    1.5820    4.3300 H       2  LIG2        0.0235
     29    H       25.2120    2.7840    4.0000 H       2  LIG2        0.0235
     30    H       25.3690    1.6450    5.3400 H       2  LIG2        0.0235
     31    H       23.8610    0.1430    2.3830 H       2  LIG2        0.0235
     32    H       25.2670   -0.2000    1.3940 H       2  LIG2        0.0235
     33    H       24.6780    1.4490    1.5250 H       2  LIG2        0.0235
     34    H       29.7210    3.1440    6.3030 H       2  LIG2        0.0268
     35    H       28.8880    1.6570    6.7120 H       2  LIG2        0.0268
     36    H       29.1800    4.2030    3.8370 H       2  LIG2        0.0233
     37    H       28.0430    4.6490    5.1050 H       2  LIG2        0.0233
     38    H       27.4450    4.0850    3.5500 H       2  LIG2        0.0233
     39    H       28.4990   -1.6370    2.6040 H       2  LIG2        0.0257
     40    H       29.2760   -2.9300    3.4800 H       2  LIG2        0.0257
     41    H       30.2350   -1.7600    2.5980 H       2  LIG2        0.0257
     42    H       31.3860   -1.1970    4.5950 H       2  LIG2        0.2102
@<TRIPOS>BOND
     1    32    13    1
     2    33    13    1
     3    17     2    1
     4    13    31    1
     5    13     3    1
     6    41    16    1
     7    39    16    1
     8    19     5    1
     9     2     3    1
    10     2     5    1
    11     2     4    1
    12    16    40    1
    13    16     9    1
    14    20     6    1
    15     3     4    1
    16     3    12    1
    17    18     4    1
    18    38    15    1
    19     5     6    1
    20     5     8    1
    21    36    15    1
    22     4     7    1
    23    29    12    1
    24     6     9    1
    25     6    10    1
    26    15     8    1
    27    15    37    1
    28    12    28    1
    29    12    30    1
    30     9     1    1
    31     9    11    1
    32    42     1    1
    33    25    10    1
    34     8    23    1
    35     8    14    1
    36    10    14    1
    37    10    24    1
    38     7    11    1
    39     7    22    1
    40     7    21    1
    41    11    27    1
    42    11    26    1
    43    14    34    1
    44    14    35    1
@<TRIPOS>MOLECULE
11996452_6_run_19.pdb
 42 44 0 0 0
SMALL
GASTEIGER

@<TRIPOS>ATOM
      1    O       29.3490    4.0130    6.0590 O.3     2  LIG2       -0.3886
      2    C       29.2650    0.1900    3.6650 C.3     2  LIG2       -0.0289
      3    C       29.1280   -1.2940    4.0370 C.3     2  LIG2       -0.0284
      4    C       29.6520   -0.3070    5.0620 C.3     2  LIG2       -0.0319
      5    C       28.1700    1.3000    3.5230 C.3     2  LIG2       -0.0294
      6    C       28.4780    2.6760    4.2020 C.3     2  LIG2       -0.0090
      7    C       28.8480    0.2430    6.2580 C.3     2  LIG2       -0.0468
      8    C       26.6580    0.9960    3.7460 C.3     2  LIG2       -0.0404
      9    C       29.4280    2.7280    5.4610 C.3     2  LIG2        0.0664
     10    C       27.0830    3.3220    4.3630 C.3     2  LIG2       -0.0471
     11    C       29.1440    1.7150    6.6180 C.3     2  LIG2       -0.0237
     12    C       27.8030   -2.0460    4.3050 C.3     2  LIG2       -0.0593
     13    C       30.1690   -2.2280    3.3880 C.3     2  LIG2       -0.0593
     14    C       26.1010    2.1740    4.5580 C.3     2  LIG2       -0.0498
     15    C       25.8750    0.7210    2.4470 C.3     2  LIG2       -0.0621
     16    C       30.9260    2.6840    5.0490 C.3     2  LIG2       -0.0358
     17    H       30.0990    0.4320    3.0040 H       2  LIG2        0.0312
     18    H       30.7090   -0.4060    5.3140 H       2  LIG2        0.0309
     19    H       28.2290    1.5350    2.4580 H       2  LIG2        0.0310
     20    H       28.9850    3.2850    3.4510 H       2  LIG2        0.0331
     21    H       27.7790    0.1520    6.1050 H       2  LIG2        0.0269
     22    H       29.0510   -0.3810    7.1300 H       2  LIG2        0.0269
     23    H       26.5090    0.1320    4.3730 H       2  LIG2        0.0301
     24    H       27.0090    4.0280    5.1890 H       2  LIG2        0.0269
     25    H       26.8260    3.8770    3.4590 H       2  LIG2        0.0269
     26    H       28.2890    2.0640    7.1990 H       2  LIG2        0.0293
     27    H       29.9860    1.7240    7.3120 H       2  LIG2        0.0293
     28    H       28.0010   -3.0780    4.5970 H       2  LIG2        0.0235
     29    H       27.1890   -2.0830    3.4060 H       2  LIG2        0.0235
     30    H       27.2010   -1.6510    5.1170 H       2  LIG2        0.0235
     31    H       30.3520   -3.1070    4.0080 H       2  LIG2        0.0235
     32    H       31.1320   -1.7370    3.2400 H       2  LIG2        0.0235
     33    H       29.8290   -2.5720    2.4110 H       2  LIG2        0.0235
     34    H       25.0950    2.4620    4.2500 H       2  LIG2        0.0268
     35    H       26.0440    1.9100    5.6150 H       2  LIG2        0.0268
     36    H       25.8890    1.5850    1.7810 H       2  LIG2        0.0233
     37    H       24.8310    0.4850    2.6590 H       2  LIG2        0.0233
     38    H       26.2980   -0.1250    1.9050 H       2  LIG2        0.0233
     39    H       31.2140    1.7610    4.5560 H       2  LIG2        0.0257
     40    H       31.5900    2.7950    5.9090 H       2  LIG2        0.0257
     41    H       31.1750    3.4890    4.3550 H       2  LIG2        0.0257
     42    H       29.1650    4.6580    5.3710 H       2  LIG2        0.2102
@<TRIPOS>BOND
     1    36    15    1
     2    38    15    1
     3    33    13    1
     4    15    37    1
     5    15     8    1
     6    19     5    1
     7    17     2    1
     8    32    13    1
     9    13    31    1
    10    13     3    1
    11    29    12    1
    12    20     6    1
    13    25    10    1
    14     5     2    1
    15     5     8    1
    16     5     6    1
    17     2     3    1
    18     2     4    1
    19     8    23    1
    20     8    14    1
    21     3    12    1
    22     3     4    1
    23     6    10    1
    24     6     9    1
    25    34    14    1
    26    12    28    1
    27    12    30    1
    28    41    16    1
    29    10    14    1
    30    10    24    1
    31    39    16    1
    32    14    35    1
    33    16     9    1
    34    16    40    1
    35     4    18    1
    36     4     7    1
    37    42     1    1
    38     9     1    1
    39     9    11    1
    40    21     7    1
    41     7    11    1
    42     7    22    1
    43    11    26    1
    44    11    27    1
@<TRIPOS>MOLECULE
11996452_6_run_7.pdb
 42 44 0 0 0
SMALL
GASTEIGER

@<TRIPOS>ATOM
      1    O       24.7240    3.9410    3.9570 O.3     2  LIG2       -0.3886
      2    C       27.0050    0.1540    4.8550 C.3     2  LIG2       -0.0289
      3    C       27.4940   -1.0220    3.9960 C.3     2  LIG2       -0.0284
      4    C       26.3200   -0.1840    3.5280 C.3     2  LIG2       -0.0319
      5    C       27.6210    1.5790    5.0590 C.3     2  LIG2       -0.0294
      6    C       26.6290    2.7860    4.9750 C.3     2  LIG2       -0.0090
      7    C       26.3750    0.8770    2.4100 C.3     2  LIG2       -0.0468
      8    C       28.9440    2.0110    4.3570 C.3     2  LIG2       -0.0404
      9    C       25.3210    2.6610    4.1000 C.3     2  LIG2        0.0664
     10    C       27.5490    3.9910    4.6720 C.3     2  LIG2       -0.0471
     11    C       25.4800    2.1140    2.6440 C.3     2  LIG2       -0.0237
     12    C       28.7930   -1.0580    3.1560 C.3     2  LIG2       -0.0593
     13    C       27.1610   -2.4200    4.5540 C.3     2  LIG2       -0.0593
     14    C       28.7150    3.4450    3.8590 C.3     2  LIG2       -0.0498
     15    C       30.2000    1.8600    5.2380 C.3     2  LIG2       -0.0621
     16    C       24.2000    1.8930    4.8550 C.3     2  LIG2       -0.0358
     17    H       26.4520   -0.1220    5.7550 H       2  LIG2        0.0312
     18    H       25.3490   -0.6820    3.5460 H       2  LIG2        0.0309
     19    H       27.8890    1.5560    6.1170 H       2  LIG2        0.0310
     20    H       26.2650    2.9590    5.9890 H       2  LIG2        0.0331
     21    H       27.3840    1.2330    2.2370 H       2  LIG2        0.0269
     22    H       26.0880    0.4070    1.4690 H       2  LIG2        0.0269
     23    H       29.1350    1.4350    3.4660 H       2  LIG2        0.0301
     24    H       27.0600    4.8030    4.1330 H       2  LIG2        0.0269
     25    H       27.9180    4.4190    5.6050 H       2  LIG2        0.0269
     26    H       25.8790    2.9040    2.0050 H       2  LIG2        0.0293
     27    H       24.4920    1.8890    2.2390 H       2  LIG2        0.0293
     28    H       28.8670   -1.9970    2.6060 H       2  LIG2        0.0235
     29    H       29.6710   -0.9960    3.7970 H       2  LIG2        0.0235
     30    H       28.8710   -0.2930    2.3900 H       2  LIG2        0.0235
     31    H       27.0730   -3.1550    3.7520 H       2  LIG2        0.0235
     32    H       26.2190   -2.4350    5.1030 H       2  LIG2        0.0235
     33    H       27.9380   -2.7620    5.2370 H       2  LIG2        0.0235
     34    H       29.5980    4.0760    3.9670 H       2  LIG2        0.0268
     35    H       28.4590    3.4390    2.7980 H       2  LIG2        0.0268
     36    H       30.1410    2.4870    6.1300 H       2  LIG2        0.0233
     37    H       31.1010    2.1460    4.6940 H       2  LIG2        0.0233
     38    H       30.3280    0.8280    5.5650 H       2  LIG2        0.0233
     39    H       24.4540    0.8610    5.0760 H       2  LIG2        0.0257
     40    H       23.2680    1.8670    4.2870 H       2  LIG2        0.0257
     41    H       23.9700    2.3610    5.8140 H       2  LIG2        0.0257
     42    H       24.6510    4.3410    4.8280 H       2  LIG2        0.2102
@<TRIPOS>BOND
     1    22     7    1
     2    26    11    1
     3    21     7    1
     4    27    11    1
     5    30    12    1
     6     7    11    1
     7     7     4    1
     8    28    12    1
     9    11     9    1
    10    35    14    1
    11    12    29    1
    12    12     3    1
    13    23     8    1
    14     4    18    1
    15     4     3    1
    16     4     2    1
    17    31    13    1
    18    14    34    1
    19    14     8    1
    20    14    10    1
    21     1     9    1
    22     1    42    1
    23     3    13    1
    24     3     2    1
    25     9    16    1
    26     9     6    1
    27    24    10    1
    28    40    16    1
    29     8     5    1
    30     8    15    1
    31    13    32    1
    32    13    33    1
    33    10     6    1
    34    10    25    1
    35    37    15    1
    36    16    39    1
    37    16    41    1
    38     2     5    1
    39     2    17    1
    40     6     5    1
    41     6    20    1
    42     5    19    1
    43    15    38    1
    44    15    36    1
@<TRIPOS>MOLECULE
11996452_6_run_13.pdb
 42 44 0 0 0
SMALL
GASTEIGER

@<TRIPOS>ATOM
      1    O       27.1720   -2.0960    3.6050 O.3     2  LIG2       -0.3886
      2    C       28.0760    1.9040    5.4880 C.3     2  LIG2       -0.0289
      3    C       29.1000    3.0100    5.1940 C.3     2  LIG2       -0.0284
      4    C       29.3800    1.5870    4.7500 C.3     2  LIG2       -0.0319
      5    C       26.7070    1.5850    4.7960 C.3     2  LIG2       -0.0294
      6    C       26.4370    0.0860    4.4410 C.3     2  LIG2       -0.0090
      7    C       29.2690    1.0700    3.3020 C.3     2  LIG2       -0.0468
      8    C       26.1600    2.4510    3.6210 C.3     2  LIG2       -0.0404
      9    C       27.6530   -0.8800    4.1600 C.3     2  LIG2        0.0664
     10    C       25.3490    0.1630    3.3450 C.3     2  LIG2       -0.0471
     11    C       28.7540   -0.3800    3.1680 C.3     2  LIG2       -0.0237
     12    C       28.9540    4.1280    4.1340 C.3     2  LIG2       -0.0593
     13    C       29.8860    3.5140    6.4210 C.3     2  LIG2       -0.0593
     14    C       25.5940    1.4630    2.5910 C.3     2  LIG2       -0.0498
     15    C       25.1500    3.5320    4.0550 C.3     2  LIG2       -0.0621
     16    C       28.2960   -1.3900    5.4800 C.3     2  LIG2       -0.0358
     17    H       28.0290    1.5730    6.5270 H       2  LIG2        0.0312
     18    H       30.1810    1.0760    5.2880 H       2  LIG2        0.0309
     19    H       25.9990    1.7760    5.6050 H       2  LIG2        0.0310
     20    H       25.9340   -0.3510    5.3060 H       2  LIG2        0.0331
     21    H       28.6320    1.7000    2.6930 H       2  LIG2        0.0269
     22    H       30.2500    1.1400    2.8300 H       2  LIG2        0.0269
     23    H       26.9480    2.9710    3.1020 H       2  LIG2        0.0301
     24    H       25.3480   -0.6800    2.6550 H       2  LIG2        0.0269
     25    H       24.3600    0.1840    3.8060 H       2  LIG2        0.0269
     26    H       28.3870   -0.4800    2.1440 H       2  LIG2        0.0293
     27    H       29.6160   -1.0460    3.2290 H       2  LIG2        0.0293
     28    H       29.8510    4.7470    4.1050 H       2  LIG2        0.0235
     29    H       28.1220    4.7870    4.3790 H       2  LIG2        0.0235
     30    H       28.8330    3.7850    3.1120 H       2  LIG2        0.0235
     31    H       30.8670    3.8930    6.1330 H       2  LIG2        0.0235
     32    H       30.0520    2.7290    7.1590 H       2  LIG2        0.0235
     33    H       29.3490    4.3200    6.9220 H       2  LIG2        0.0235
     34    H       24.6770    1.8220    2.1200 H       2  LIG2        0.0268
     35    H       26.3160    1.2980    1.7900 H       2  LIG2        0.0268
     36    H       24.2630    3.0900    4.5110 H       2  LIG2        0.0233
     37    H       24.8200    4.1280    3.2030 H       2  LIG2        0.0233
     38    H       25.5930    4.2140    4.7800 H       2  LIG2        0.0233
     39    H       28.7360   -0.6000    6.0810 H       2  LIG2        0.0257
     40    H       29.0890   -2.1160    5.2950 H       2  LIG2        0.0257
     41    H       27.5610   -1.8840    6.1190 H       2  LIG2        0.0257
     42    H       26.9530   -1.9430    2.6830 H       2  LIG2        0.2102
@<TRIPOS>BOND
     1    35    14    1
     2    34    14    1
     3    26    11    1
     4    14    10    1
     5    14     8    1
     6    24    10    1
     7    42     1    1
     8    21     7    1
     9    22     7    1
    10    23     8    1
    11    30    12    1
    12    11    27    1
    13    11     7    1
    14    11     9    1
    15    37    15    1
    16     7     4    1
    17    10    25    1
    18    10     6    1
    19     1     9    1
    20     8    15    1
    21     8     5    1
    22    15    36    1
    23    15    38    1
    24    28    12    1
    25    12    29    1
    26    12     3    1
    27     9     6    1
    28     9    16    1
    29     6     5    1
    30     6    20    1
    31     4     3    1
    32     4    18    1
    33     4     2    1
    34     5     2    1
    35     5    19    1
    36     3     2    1
    37     3    13    1
    38    40    16    1
    39    16    39    1
    40    16    41    1
    41     2    17    1
    42    31    13    1
    43    13    33    1
    44    13    32    1
@<TRIPOS>MOLECULE
11996452_6_run_12.pdb
 42 44 0 0 0
SMALL
GASTEIGER

@<TRIPOS>ATOM
      1    O       31.6690    1.0680    5.4250 O.3     2  LIG2       -0.3886
      2    C       27.2080    1.7360    5.3680 C.3     2  LIG2       -0.0289
      3    C       26.2560    2.4770    4.4170 C.3     2  LIG2       -0.0284
      4    C       27.7200    2.8700    4.4740 C.3     2  LIG2       -0.0319
      5    C       27.8510    0.3130    5.2460 C.3     2  LIG2       -0.0294
      6    C       29.3800    0.2090    5.5600 C.3     2  LIG2       -0.0090
      7    C       28.7780    2.5110    3.4100 C.3     2  LIG2       -0.0468
      8    C       27.5580   -0.6190    4.0320 C.3     2  LIG2       -0.0404
      9    C       30.3090    1.4650    5.3350 C.3     2  LIG2        0.0664
     10    C       29.8070   -1.1000    4.8560 C.3     2  LIG2       -0.0471
     11    C       30.1860    2.2150    3.9690 C.3     2  LIG2       -0.0237
     12    C       25.6630    1.9160    3.1030 C.3     2  LIG2       -0.0593
     13    C       25.2620    3.4340    5.1050 C.3     2  LIG2       -0.0593
     14    C       28.9040   -1.2440    3.6380 C.3     2  LIG2       -0.0498
     15    C       26.4510   -1.6600    4.2930 C.3     2  LIG2       -0.0621
     16    C       30.2130    2.4660    6.5200 C.3     2  LIG2       -0.0358
     17    H       27.0990    1.9830    6.4250 H       2  LIG2        0.0312
     18    H       27.9300    3.8420    4.9210 H       2  LIG2        0.0309
     19    H       27.3920   -0.2100    6.0870 H       2  LIG2        0.0310
     20    H       29.4630   -0.0060    6.6270 H       2  LIG2        0.0331
     21    H       28.4780    1.6590    2.8100 H       2  LIG2        0.0269
     22    H       28.8470    3.3340    2.6970 H       2  LIG2        0.0269
     23    H       27.2450   -0.0640    3.1630 H       2  LIG2        0.0301
     24    H       30.8540   -1.1250    4.5560 H       2  LIG2        0.0269
     25    H       29.6580   -1.9460    5.5280 H       2  LIG2        0.0269
     26    H       30.7060    1.6430    3.1970 H       2  LIG2        0.0293
     27    H       30.7230    3.1630    4.0340 H       2  LIG2        0.0293
     28    H       25.0590    2.6730    2.6020 H       2  LIG2        0.0235
     29    H       25.0090    1.0690    3.3030 H       2  LIG2        0.0235
     30    H       26.3920    1.6190    2.3550 H       2  LIG2        0.0235
     31    H       24.9750    4.2510    4.4400 H       2  LIG2        0.0235
     32    H       25.6770    3.8880    6.0050 H       2  LIG2        0.0235
     33    H       24.3540    2.9070    5.3980 H       2  LIG2        0.0235
     34    H       28.8140   -2.2890    3.3380 H       2  LIG2        0.0268
     35    H       29.3350   -0.7080    2.7910 H       2  LIG2        0.0268
     36    H       26.7220   -2.3370    5.1050 H       2  LIG2        0.0233
     37    H       26.2630   -2.2670    3.4060 H       2  LIG2        0.0233
     38    H       25.5120   -1.1760    4.5630 H       2  LIG2        0.0233
     39    H       29.2270    2.9030    6.6410 H       2  LIG2        0.0257
     40    H       30.9080    3.3010    6.4080 H       2  LIG2        0.0257
     41    H       30.4510    1.9860    7.4710 H       2  LIG2        0.0257
     42    H       31.9130    0.6310    4.6050 H       2  LIG2        0.2102
@<TRIPOS>BOND
     1    30    12    1
     2    28    12    1
     3    22     7    1
     4    35    14    1
     5    21     7    1
     6    12    29    1
     7    12     3    1
     8    23     8    1
     9    26    11    1
    10    34    14    1
    11    37    15    1
    12     7    11    1
    13     7     4    1
    14    14     8    1
    15    14    10    1
    16    11    27    1
    17    11     9    1
    18     8    15    1
    19     8     5    1
    20    15    38    1
    21    15    36    1
    22     3     4    1
    23     3    13    1
    24     3     2    1
    25    31    13    1
    26     4    18    1
    27     4     2    1
    28    24    10    1
    29    42     1    1
    30    10    25    1
    31    10     6    1
    32    13    33    1
    33    13    32    1
    34     5     2    1
    35     5     6    1
    36     5    19    1
    37     9     1    1
    38     9     6    1
    39     9    16    1
    40     2    17    1
    41     6    20    1
    42    40    16    1
    43    16    39    1
    44    16    41    1
@<TRIPOS>MOLECULE
11996452_6_run_4.pdb
 42 44 0 0 0
SMALL
GASTEIGER

@<TRIPOS>ATOM
      1    O       24.6240    3.1490    3.4630 O.3     2  LIG2       -0.3886
      2    C       29.0170    2.2880    4.0260 C.3     2  LIG2       -0.0289
      3    C       29.9270    2.1690    5.2570 C.3     2  LIG2       -0.0284
      4    C       28.6470    2.9760    5.3430 C.3     2  LIG2       -0.0319
      5    C       28.0260    1.2500    3.3980 C.3     2  LIG2       -0.0294
      6    C       26.6070    1.7850    3.0120 C.3     2  LIG2       -0.0090
      7    C       27.3520    2.5170    6.0440 C.3     2  LIG2       -0.0468
      8    C       27.8420   -0.1760    3.9990 C.3     2  LIG2       -0.0404
      9    C       25.9990    3.0130    3.7930 C.3     2  LIG2        0.0664
     10    C       25.7410    0.5050    2.9540 C.3     2  LIG2       -0.0471
     11    C       26.0460    2.9670    5.3550 C.3     2  LIG2       -0.0237
     12    C       30.1020    0.9110    6.1420 C.3     2  LIG2       -0.0593
     13    C       31.2420    2.9710    5.1770 C.3     2  LIG2       -0.0593
     14    C       26.3330   -0.4570    3.9750 C.3     2  LIG2       -0.0498
     15    C       28.6800   -1.2650    3.3010 C.3     2  LIG2       -0.0621
     16    C       26.5640    4.3620    3.2670 C.3     2  LIG2       -0.0358
     17    H       29.3820    2.9480    3.2360 H       2  LIG2        0.0312
     18    H       28.7760    4.0560    5.4300 H       2  LIG2        0.0309
     19    H       28.4890    1.0610    2.4270 H       2  LIG2        0.0310
     20    H       26.6760    2.1250    1.9770 H       2  LIG2        0.0331
     21    H       27.3090    1.4390    6.1530 H       2  LIG2        0.0269
     22    H       27.3580    2.8930    7.0680 H       2  LIG2        0.0269
     23    H       28.1140   -0.2130    5.0410 H       2  LIG2        0.0301
     24    H       24.6840    0.6720    3.1590 H       2  LIG2        0.0269
     25    H       25.7960    0.0660    1.9570 H       2  LIG2        0.0269
     26    H       25.2630    2.2980    5.7180 H       2  LIG2        0.0293
     27    H       25.7860    3.9520    5.7480 H       2  LIG2        0.0293
     28    H       30.7710    1.1210    6.9770 H       2  LIG2        0.0235
     29    H       30.5480    0.0970    5.5740 H       2  LIG2        0.0235
     30    H       29.1940    0.5460    6.6120 H       2  LIG2        0.0235
     31    H       31.5930    3.2540    6.1710 H       2  LIG2        0.0235
     32    H       31.1310    3.8940    4.6050 H       2  LIG2        0.0235
     33    H       32.0270    2.3860    4.6980 H       2  LIG2        0.0235
     34    H       26.0990   -1.4920    3.7190 H       2  LIG2        0.0268
     35    H       25.8980   -0.2700    4.9590 H       2  LIG2        0.0268
     36    H       28.4060   -1.3680    2.2490 H       2  LIG2        0.0233
     37    H       28.5390   -2.2370    3.7750 H       2  LIG2        0.0233
     38    H       29.7440   -1.0300    3.3450 H       2  LIG2        0.0233
     39    H       27.6330    4.4740    3.4190 H       2  LIG2        0.0257
     40    H       26.0930    5.2200    3.7510 H       2  LIG2        0.0257
     41    H       26.3970    4.4770    2.1950 H       2  LIG2        0.0257
     42    H       24.2550    3.8620    3.9890 H       2  LIG2        0.2102
@<TRIPOS>BOND
     1    25    10    1
     2    20     6    1
     3    41    16    1
     4    36    15    1
     5    19     5    1
     6    10     6    1
     7    10    24    1
     8    10    14    1
     9     6     5    1
    10     6     9    1
    11    17     2    1
    12    16    39    1
    13    16    40    1
    14    16     9    1
    15    15    38    1
    16    15    37    1
    17    15     8    1
    18     5     8    1
    19     5     2    1
    20     1     9    1
    21     1    42    1
    22    34    14    1
    23     9    11    1
    24    14     8    1
    25    14    35    1
    26     8    23    1
    27     2     3    1
    28     2     4    1
    29    32    13    1
    30    33    13    1
    31    13     3    1
    32    13    31    1
    33     3     4    1
    34     3    12    1
    35     4    18    1
    36     4     7    1
    37    11    26    1
    38    11    27    1
    39    11     7    1
    40    29    12    1
    41     7    21    1
    42     7    22    1
    43    12    30    1
    44    12    28    1
@<TRIPOS>MOLECULE
11996452_6_run_14.pdb
 42 44 0 0 0
SMALL
GASTEIGER

@<TRIPOS>ATOM
      1    O       24.7060   -0.3950    2.5340 O.3     2  LIG2       -0.3886
      2    C       28.2370    2.1470    3.7250 C.3     2  LIG2       -0.0289
      3    C       28.4700    3.1950    4.8240 C.3     2  LIG2       -0.0284
      4    C       27.0610    2.9120    4.3410 C.3     2  LIG2       -0.0319
      5    C       28.2580    0.5830    3.8010 C.3     2  LIG2       -0.0294
      6    C       27.0770   -0.1650    3.0980 C.3     2  LIG2       -0.0090
      7    C       26.0060    2.0900    5.1100 C.3     2  LIG2       -0.0468
      8    C       28.5670   -0.1710    5.1290 C.3     2  LIG2       -0.0404
      9    C       25.6800    0.5510    2.9490 C.3     2  LIG2        0.0664
     10    C       27.0720   -1.5540    3.7790 C.3     2  LIG2       -0.0471
     11    C       25.0800    1.2300    4.2230 C.3     2  LIG2       -0.0237
     12    C       28.8490    2.9010    6.2960 C.3     2  LIG2       -0.0593
     13    C       29.1090    4.5130    4.3440 C.3     2  LIG2       -0.0593
     14    C       27.5670   -1.3330    5.2020 C.3     2  LIG2       -0.0498
     15    C       30.0360   -0.6160    5.2720 C.3     2  LIG2       -0.0621
     16    C       25.6670    1.5350    1.7460 C.3     2  LIG2       -0.0358
     17    H       28.5230    2.4550    2.7180 H       2  LIG2        0.0312
     18    H       26.5910    3.7110    3.7660 H       2  LIG2        0.0309
     19    H       29.1130    0.3420    3.1650 H       2  LIG2        0.0310
     20    H       27.3990   -0.3570    2.0720 H       2  LIG2        0.0331
     21    H       26.4580    1.4330    5.8440 H       2  LIG2        0.0269
     22    H       25.3940    2.7750    5.6990 H       2  LIG2        0.0269
     23    H       28.3540    0.4340    5.9950 H       2  LIG2        0.0301
     24    H       26.0990   -2.0440    3.7880 H       2  LIG2        0.0269
     25    H       27.7510   -2.2260    3.2520 H       2  LIG2        0.0269
     26    H       24.6610    0.4620    4.8760 H       2  LIG2        0.0293
     27    H       24.2320    1.8510    3.9290 H       2  LIG2        0.0293
     28    H       28.9040    3.8280    6.8680 H       2  LIG2        0.0235
     29    H       29.8300    2.4320    6.3570 H       2  LIG2        0.0235
     30    H       28.1400    2.2900    6.8440 H       2  LIG2        0.0235
     31    H       28.8190    5.3480    4.9830 H       2  LIG2        0.0235
     32    H       28.8120    4.7730    3.3270 H       2  LIG2        0.0235
     33    H       30.1970    4.4450    4.3550 H       2  LIG2        0.0235
     34    H       28.0060   -2.2450    5.6100 H       2  LIG2        0.0268
     35    H       26.7290   -1.0700    5.8500 H       2  LIG2        0.0268
     36    H       30.3210   -1.3140    4.4830 H       2  LIG2        0.0233
     37    H       30.2080   -1.1110    6.2280 H       2  LIG2        0.0233
     38    H       30.7120    0.2390    5.2200 H       2  LIG2        0.0233
     39    H       26.3630    2.3620    1.8550 H       2  LIG2        0.0257
     40    H       24.6820    1.9790    1.5910 H       2  LIG2        0.0257
     41    H       25.9360    1.0340    0.8140 H       2  LIG2        0.0257
     42    H       25.0940   -0.9530    1.8550 H       2  LIG2        0.2102
@<TRIPOS>BOND
     1    41    16    1
     2    40    16    1
     3    16    39    1
     4    16     9    1
     5    42     1    1
     6    20     6    1
     7     1     9    1
     8    17     2    1
     9     9     6    1
    10     9    11    1
    11     6    10    1
    12     6     5    1
    13    19     5    1
    14    25    10    1
    15    32    13    1
    16     2     5    1
    17     2     4    1
    18     2     3    1
    19    18     4    1
    20    10    24    1
    21    10    14    1
    22     5     8    1
    23    27    11    1
    24    11    26    1
    25    11     7    1
    26     4     3    1
    27     4     7    1
    28    13    33    1
    29    13     3    1
    30    13    31    1
    31    36    15    1
    32     3    12    1
    33     7    22    1
    34     7    21    1
    35     8    14    1
    36     8    15    1
    37     8    23    1
    38    14    34    1
    39    14    35    1
    40    38    15    1
    41    15    37    1
    42    12    29    1
    43    12    30    1
    44    12    28    1
@<TRIPOS>MOLECULE
11996452_6_run_19.pdb
 42 44 0 0 0
SMALL
GASTEIGER

@<TRIPOS>ATOM
      1    O       22.8490    3.5890    3.5740 O.3     2  LIG2       -0.3886
      2    C       26.8940    2.3070    5.1060 C.3     2  LIG2       -0.0289
      3    C       27.9690    1.3400    4.5880 C.3     2  LIG2       -0.0284
      4    C       26.5270    1.1630    4.1550 C.3     2  LIG2       -0.0319
      5    C       26.5780    3.7830    4.6880 C.3     2  LIG2       -0.0294
      6    C       25.0720    4.1320    4.4460 C.3     2  LIG2       -0.0090
      7    C       25.9610    1.5450    2.7720 C.3     2  LIG2       -0.0468
      8    C       27.4120    4.5250    3.6010 C.3     2  LIG2       -0.0404
      9    C       24.0750    3.0000    3.9840 C.3     2  LIG2        0.0664
     10    C       25.1320    5.4010    3.5650 C.3     2  LIG2       -0.0471
     11    C       24.5180    2.0940    2.7900 C.3     2  LIG2       -0.0237
     12    C       29.0520    1.6640    3.5310 C.3     2  LIG2       -0.0593
     13    C       28.5020    0.3370    5.6310 C.3     2  LIG2       -0.0593
     14    C       26.4000    5.2830    2.7300 C.3     2  LIG2       -0.0498
     15    C       28.5270    5.4250    4.1700 C.3     2  LIG2       -0.0621
     16    C       23.5990    2.1330    5.1830 C.3     2  LIG2       -0.0358
     17    H       26.6010    2.1660    6.1480 H       2  LIG2        0.0312
     18    H       26.0190    0.2850    4.5560 H       2  LIG2        0.0309
     19    H       26.8110    4.3280    5.6050 H       2  LIG2        0.0310
     20    H       24.6760    4.4730    5.4040 H       2  LIG2        0.0331
     21    H       26.5820    2.2750    2.2660 H       2  LIG2        0.0269
     22    H       25.9960    0.6660    2.1270 H       2  LIG2        0.0269
     23    H       27.8990    3.8390    2.9270 H       2  LIG2        0.0301
     24    H       24.2650    5.5390    2.9190 H       2  LIG2        0.0269
     25    H       25.1880    6.2880    4.1980 H       2  LIG2        0.0269
     26    H       24.3890    2.6430    1.8550 H       2  LIG2        0.0293
     27    H       23.8380    1.2430    2.7180 H       2  LIG2        0.0293
     28    H       29.6530    0.7800    3.3150 H       2  LIG2        0.0235
     29    H       29.7350    2.4290    3.8980 H       2  LIG2        0.0235
     30    H       28.6760    1.9750    2.5610 H       2  LIG2        0.0235
     31    H       28.8510   -0.5800    5.1540 H       2  LIG2        0.0235
     32    H       27.7390    0.0470    6.3550 H       2  LIG2        0.0235
     33    H       29.3350    0.7620    6.1900 H       2  LIG2        0.0235
     34    H       26.7590    6.2660    2.4210 H       2  LIG2        0.0268
     35    H       26.1930    4.7210    1.8170 H       2  LIG2        0.0268
     36    H       28.1180    6.2190    4.7980 H       2  LIG2        0.0233
     37    H       29.0990    5.8980    3.3710 H       2  LIG2        0.0233
     38    H       29.2260    4.8480    4.7760 H       2  LIG2        0.0233
     39    H       24.4010    1.5800    5.6640 H       2  LIG2        0.0257
     40    H       22.8520    1.3960    4.8840 H       2  LIG2        0.0257
     41    H       23.1420    2.7440    5.9640 H       2  LIG2        0.0257
     42    H       22.2300    2.8860    3.3640 H       2  LIG2        0.2102
@<TRIPOS>BOND
     1    35    14    1
     2    26    11    1
     3    22     7    1
     4    21     7    1
     5    34    14    1
     6    30    12    1
     7    27    11    1
     8    14    10    1
     9    14     8    1
    10     7    11    1
    11     7     4    1
    12    11     9    1
    13    24    10    1
    14    23     8    1
    15    28    12    1
    16    42     1    1
    17    37    15    1
    18    12    29    1
    19    12     3    1
    20    10    25    1
    21    10     6    1
    22     1     9    1
    23     8    15    1
    24     8     5    1
    25     9     6    1
    26     9    16    1
    27     4    18    1
    28     4     3    1
    29     4     2    1
    30    15    38    1
    31    15    36    1
    32     6     5    1
    33     6    20    1
    34     3     2    1
    35     3    13    1
    36     5     2    1
    37     5    19    1
    38    40    16    1
    39     2    17    1
    40    31    13    1
    41    16    39    1
    42    16    41    1
    43    13    33    1
    44    13    32    1
@<TRIPOS>MOLECULE
11996452_6_run_7.pdb
 42 44 0 0 0
SMALL
GASTEIGER

@<TRIPOS>ATOM
      1    O       27.3560    4.1090    4.5310 O.3     2  LIG2       -0.3886
      2    C       27.9530   -0.3120    5.2030 C.3     2  LIG2       -0.0289
      3    C       28.5100   -1.4530    4.3380 C.3     2  LIG2       -0.0284
      4    C       27.9470   -0.2110    3.6740 C.3     2  LIG2       -0.0319
      5    C       28.7030    0.7790    6.0400 C.3     2  LIG2       -0.0294
      6    C       28.1910    2.2490    5.8880 C.3     2  LIG2       -0.0090
      7    C       28.7870    0.9130    3.0340 C.3     2  LIG2       -0.0468
      8    C       30.2590    0.8300    6.1160 C.3     2  LIG2       -0.0404
      9    C       27.4900    2.6960    4.5470 C.3     2  LIG2        0.0664
     10    C       29.3940    3.1020    6.3550 C.3     2  LIG2       -0.0471
     11    C       28.2070    2.3340    3.2050 C.3     2  LIG2       -0.0237
     12    C       30.0040   -1.8090    4.1540 C.3     2  LIG2       -0.0593
     13    C       27.6310   -2.7190    4.2840 C.3     2  LIG2       -0.0593
     14    C       30.6440    2.3110    5.9940 C.3     2  LIG2       -0.0498
     15    C       30.8490    0.1430    7.3640 C.3     2  LIG2       -0.0621
     16    C       26.0000    2.2560    4.5070 C.3     2  LIG2       -0.0358
     17    H       26.9840   -0.5060    5.6660 H       2  LIG2        0.0312
     18    H       27.0060   -0.3490    3.1390 H       2  LIG2        0.0309
     19    H       28.4060    0.5200    7.0580 H       2  LIG2        0.0310
     20    H       27.4290    2.3930    6.6570 H       2  LIG2        0.0331
     21    H       29.8030    0.9260    3.4110 H       2  LIG2        0.0269
     22    H       28.8950    0.7030    1.9690 H       2  LIG2        0.0269
     23    H       30.7200    0.3520    5.2670 H       2  LIG2        0.0301
     24    H       29.4350    4.0970    5.9140 H       2  LIG2        0.0269
     25    H       29.3470    3.2460    7.4360 H       2  LIG2        0.0269
     26    H       29.0390    3.0230    3.0460 H       2  LIG2        0.0293
     27    H       27.5220    2.5150    2.3760 H       2  LIG2        0.0293
     28    H       30.1170   -2.6320    3.4470 H       2  LIG2        0.0235
     29    H       30.4440   -2.1370    5.0950 H       2  LIG2        0.0235
     30    H       30.6220   -1.0180    3.7420 H       2  LIG2        0.0235
     31    H       27.7780   -3.2620    3.3490 H       2  LIG2        0.0235
     32    H       26.5680   -2.4900    4.3550 H       2  LIG2        0.0235
     33    H       27.8720   -3.3950    5.1050 H       2  LIG2        0.0235
     34    H       31.4810    2.5850    6.6390 H       2  LIG2        0.0268
     35    H       30.9460    2.5390    4.9710 H       2  LIG2        0.0268
     36    H       30.5100    0.6230    8.2830 H       2  LIG2        0.0233
     37    H       31.9390    0.1790    7.3560 H       2  LIG2        0.0233
     38    H       30.5570   -0.9070    7.4090 H       2  LIG2        0.0233
     39    H       25.8650    1.1780    4.5140 H       2  LIG2        0.0257
     40    H       25.4880    2.6250    3.6160 H       2  LIG2        0.0257
     41    H       25.4460    2.6360    5.3670 H       2  LIG2        0.0257
     42    H       26.9450    4.3840    5.3550 H       2  LIG2        0.2102
@<TRIPOS>BOND
     1    22     7    1
     2    27    11    1
     3     7    11    1
     4     7    21    1
     5     7     4    1
     6    26    11    1
     7    18     4    1
     8    11     9    1
     9    31    13    1
    10    28    12    1
    11    40    16    1
    12     4     3    1
    13     4     2    1
    14    30    12    1
    15    12     3    1
    16    12    29    1
    17    13     3    1
    18    13    32    1
    19    13    33    1
    20     3     2    1
    21    16    39    1
    22    16     9    1
    23    16    41    1
    24     1     9    1
    25     1    42    1
    26     9     6    1
    27    35    14    1
    28     2    17    1
    29     2     5    1
    30    23     8    1
    31     6     5    1
    32     6    10    1
    33     6    20    1
    34    24    10    1
    35    14     8    1
    36    14    10    1
    37    14    34    1
    38     5     8    1
    39     5    19    1
    40     8    15    1
    41    10    25    1
    42    37    15    1
    43    15    38    1
    44    15    36    1
@<TRIPOS>MOLECULE
11996452_6_run_15.pdb
 42 44 0 0 0
SMALL
GASTEIGER

@<TRIPOS>ATOM
      1    O       26.7060   -2.6930    4.7190 O.3     2  LIG2       -0.3886
      2    C       28.3620    1.4400    3.9920 C.3     2  LIG2       -0.0289
      3    C       29.2640    2.3810    4.8030 C.3     2  LIG2       -0.0284
      4    C       28.4590    1.3120    5.5150 C.3     2  LIG2       -0.0319
      5    C       28.7320    0.2110    3.0940 C.3     2  LIG2       -0.0294
      6    C       27.8740   -1.0820    3.2930 C.3     2  LIG2       -0.0090
      7    C       29.0320   -0.0030    6.0820 C.3     2  LIG2       -0.0468
      8    C       30.2100   -0.2350    2.8820 C.3     2  LIG2       -0.0404
      9    C       27.1970   -1.3610    4.6900 C.3     2  LIG2        0.0664
     10    C       28.7720   -2.2040    2.7230 C.3     2  LIG2       -0.0471
     11    C       28.0950   -1.2240    5.9630 C.3     2  LIG2       -0.0237
     12    C       30.8100    2.3390    4.8560 C.3     2  LIG2       -0.0593
     13    C       28.7490    3.8290    4.9310 C.3     2  LIG2       -0.0593
     14    C       30.2100   -1.7680    2.9730 C.3     2  LIG2       -0.0498
     15    C       30.8490    0.3030    1.5870 C.3     2  LIG2       -0.0621
     16    C       25.8790   -0.5550    4.8590 C.3     2  LIG2       -0.0358
     17    H       27.4400    1.8860    3.6140 H       2  LIG2        0.0312
     18    H       27.6340    1.6750    6.1300 H       2  LIG2        0.0309
     19    H       28.4260    0.5590    2.1050 H       2  LIG2        0.0310
     20    H       27.0380   -1.0090    2.5930 H       2  LIG2        0.0331
     21    H       29.9750   -0.2690    5.6170 H       2  LIG2        0.0269
     22    H       29.2820    0.1500    7.1320 H       2  LIG2        0.0269
     23    H       30.8490    0.0890    3.6870 H       2  LIG2        0.0301
     24    H       28.5930   -3.1860    3.1610 H       2  LIG2        0.0269
     25    H       28.5990   -2.3090    1.6510 H       2  LIG2        0.0269
     26    H       28.7320   -2.1070    6.0510 H       2  LIG2        0.0293
     27    H       27.4590   -1.2410    6.8500 H       2  LIG2        0.0293
     28    H       31.1900    3.0900    5.5480 H       2  LIG2        0.0235
     29    H       31.2380    2.5620    3.8790 H       2  LIG2        0.0235
     30    H       31.2360    1.4060    5.2130 H       2  LIG2        0.0235
     31    H       29.1090    4.2960    5.8490 H       2  LIG2        0.0235
     32    H       27.6600    3.8820    4.9540 H       2  LIG2        0.0235
     33    H       29.0850    4.4380    4.0920 H       2  LIG2        0.0235
     34    H       30.8900   -2.2340    2.2580 H       2  LIG2        0.0268
     35    H       30.5280   -2.0880    3.9660 H       2  LIG2        0.0268
     36    H       30.3210   -0.0550    0.7020 H       2  LIG2        0.0233
     37    H       31.8900   -0.0120    1.5000 H       2  LIG2        0.0233
     38    H       30.8340    1.3930    1.5660 H       2  LIG2        0.0233
     39    H       26.0260    0.5210    4.8630 H       2  LIG2        0.0257
     40    H       25.3670   -0.7990    5.7920 H       2  LIG2        0.0257
     41    H       25.1760   -0.7630    4.0510 H       2  LIG2        0.0257
     42    H       26.8490   -3.0510    5.5990 H       2  LIG2        0.2102
@<TRIPOS>BOND
     1    36    15    1
     2    37    15    1
     3    38    15    1
     4    15     8    1
     5    25    10    1
     6    19     5    1
     7    34    14    1
     8    20     6    1
     9    10    14    1
    10    10    24    1
    11    10     6    1
    12     8    14    1
    13     8     5    1
    14     8    23    1
    15    14    35    1
    16     5     6    1
    17     5     2    1
    18     6     9    1
    19    17     2    1
    20    29    12    1
    21     2     3    1
    22     2     4    1
    23    41    16    1
    24    33    13    1
    25     9     1    1
    26     9    16    1
    27     9    11    1
    28     1    42    1
    29     3    12    1
    30     3    13    1
    31     3     4    1
    32    12    30    1
    33    12    28    1
    34    16    39    1
    35    16    40    1
    36    13    32    1
    37    13    31    1
    38     4     7    1
    39     4    18    1
    40    21     7    1
    41    11    26    1
    42    11     7    1
    43    11    27    1
    44     7    22    1
