@<TRIPOS>MOLECULE
11996452_1_run_5.pdb
 42 44 0 0 0
SMALL
GASTEIGER

@<TRIPOS>ATOM
      1    O       28.2540    2.8540    6.3160 O.3     2  LIG2       -0.3886
      2    C       29.1190   -0.3540    5.2240 C.3     2  LIG2       -0.0289
      3    C       30.1120   -0.5920    4.0970 C.3     2  LIG2       -0.0284
      4    C       30.4010    0.4990    5.1050 C.3     2  LIG2       -0.0319
      5    C       27.6210    0.1110    5.1330 C.3     2  LIG2       -0.0294
      6    C       27.1410    1.5020    4.6410 C.3     2  LIG2       -0.0090
      7    C       30.5170    1.9960    4.7310 C.3     2  LIG2       -0.0468
      8    C       26.6610   -0.8590    4.3940 C.3     2  LIG2       -0.0404
      9    C       28.0010    2.7650    4.9210 C.3     2  LIG2        0.0664
     10    C       26.5970    1.3020    3.2100 C.3     2  LIG2       -0.0471
     11    C       29.3420    2.8050    4.1580 C.3     2  LIG2       -0.0237
     12    C       30.9880   -1.8570    4.2030 C.3     2  LIG2       -0.0593
     13    C       29.7930   -0.2630    2.6290 C.3     2  LIG2       -0.0593
     14    C       26.3740   -0.2070    3.0300 C.3     2  LIG2       -0.0498
     15    C       27.0980   -2.3340    4.3060 C.3     2  LIG2       -0.0621
     16    C       27.2000    4.0500    4.5980 C.3     2  LIG2       -0.0358
     17    H       29.1600   -1.1140    6.0070 H       2  LIG2        0.0312
     18    H       31.1120    0.2870    5.9050 H       2  LIG2        0.0309
     19    H       27.3260    0.0850    6.1840 H       2  LIG2        0.0310
     20    H       26.2310    1.6810    5.2240 H       2  LIG2        0.0331
     21    H       30.8720    2.5190    5.6220 H       2  LIG2        0.0269
     22    H       31.3490    2.0860    4.0330 H       2  LIG2        0.0269
     23    H       25.7180   -0.8620    4.9450 H       2  LIG2        0.0301
     24    H       25.6490    1.8310    3.0950 H       2  LIG2        0.0269
     25    H       27.2500    1.7040    2.4380 H       2  LIG2        0.0269
     26    H       29.6900    3.8400    4.1260 H       2  LIG2        0.0293
     27    H       29.1930    2.5820    3.1050 H       2  LIG2        0.0293
     28    H       31.9230   -1.7320    3.6560 H       2  LIG2        0.0235
     29    H       30.4750   -2.7260    3.7920 H       2  LIG2        0.0235
     30    H       31.2490   -2.0940    5.2350 H       2  LIG2        0.0235
     31    H       30.7050   -0.0220    2.0800 H       2  LIG2        0.0235
     32    H       29.1220    0.5740    2.5100 H       2  LIG2        0.0235
     33    H       29.3290   -1.1140    2.1300 H       2  LIG2        0.0235
     34    H       27.0220   -0.6060    2.2510 H       2  LIG2        0.0268
     35    H       25.3500   -0.4110    2.7130 H       2  LIG2        0.0268
     36    H       27.9950   -2.4610    3.7020 H       2  LIG2        0.0233
     37    H       26.3160   -2.9450    3.8550 H       2  LIG2        0.0233
     38    H       27.3010   -2.7450    5.2960 H       2  LIG2        0.0233
     39    H       26.9790    4.1240    3.5320 H       2  LIG2        0.0257
     40    H       27.7450    4.9550    4.8750 H       2  LIG2        0.0257
     41    H       26.2460    4.0780    5.1280 H       2  LIG2        0.0257
     42    H       28.7230    2.0630    6.5900 H       2  LIG2        0.2102
@<TRIPOS>BOND
     1    31    13    1
     2    33    13    1
     3    34    14    1
     4    25    10    1
     5    32    13    1
     6    13     3    1
     7    35    14    1
     8    14    10    1
     9    14     8    1
    10    24    10    1
    11    27    11    1
    12    10     6    1
    13    39    16    1
    14    28    12    1
    15    36    15    1
    16    29    12    1
    17    37    15    1
    18    22     7    1
    19     3    12    1
    20     3     4    1
    21     3     2    1
    22    26    11    1
    23    11     7    1
    24    11     9    1
    25    12    30    1
    26    15     8    1
    27    15    38    1
    28     8    23    1
    29     8     5    1
    30    16    40    1
    31    16     9    1
    32    16    41    1
    33     6     9    1
    34     6     5    1
    35     6    20    1
    36     7     4    1
    37     7    21    1
    38     9     1    1
    39     4     2    1
    40     4    18    1
    41     5     2    1
    42     5    19    1
    43     2    17    1
    44     1    42    1
@<TRIPOS>MOLECULE
11996452_1_run_8.pdb
 42 44 0 0 0
SMALL
GASTEIGER

@<TRIPOS>ATOM
      1    O       26.6480    0.1430    2.2780 O.3     2  LIG2       -0.3886
      2    C       29.7200    0.1340    3.9490 C.3     2  LIG2       -0.0289
      3    C       29.9410   -0.6280    5.2470 C.3     2  LIG2       -0.0284
      4    C       29.1170   -1.2740    4.1530 C.3     2  LIG2       -0.0319
      5    C       28.9720    1.4960    3.7240 C.3     2  LIG2       -0.0294
      6    C       27.4520    1.7300    3.9230 C.3     2  LIG2       -0.0090
      7    C       27.6270   -1.6550    4.3220 C.3     2  LIG2       -0.0468
      8    C       29.5990    2.7300    4.4260 C.3     2  LIG2       -0.0404
      9    C       26.4430    0.5910    3.6100 C.3     2  LIG2        0.0664
     10    C       27.2920    2.4880    5.2590 C.3     2  LIG2       -0.0471
     11    C       26.5230   -0.6150    4.5700 C.3     2  LIG2       -0.0237
     12    C       31.3470   -1.2210    5.4700 C.3     2  LIG2       -0.0593
     13    C       29.3060   -0.1960    6.5790 C.3     2  LIG2       -0.0593
     14    C       28.6770    3.0490    5.6150 C.3     2  LIG2       -0.0498
     15    C       31.0920    2.6330    4.7960 C.3     2  LIG2       -0.0621
     16    C       24.9930    1.1360    3.6080 C.3     2  LIG2       -0.0358
     17    H       30.5990    0.1510    3.3010 H       2  LIG2        0.0312
     18    H       29.5960   -2.0220    3.5210 H       2  LIG2        0.0309
     19    H       29.1250    1.6490    2.6530 H       2  LIG2        0.0310
     20    H       27.2080    2.4950    3.1790 H       2  LIG2        0.0331
     21    H       27.3450   -2.2290    3.4360 H       2  LIG2        0.0269
     22    H       27.5750   -2.3880    5.1270 H       2  LIG2        0.0269
     23    H       29.5210    3.5710    3.7330 H       2  LIG2        0.0301
     24    H       26.5820    3.3090    5.1390 H       2  LIG2        0.0269
     25    H       26.8920    1.8720    6.0620 H       2  LIG2        0.0269
     26    H       25.5840   -1.1680    4.5100 H       2  LIG2        0.0293
     27    H       26.5260   -0.2840    5.6050 H       2  LIG2        0.0293
     28    H       31.3070   -2.0800    6.1410 H       2  LIG2        0.0235
     29    H       32.0180   -0.4840    5.9120 H       2  LIG2        0.0235
     30    H       31.8050   -1.5600    4.5410 H       2  LIG2        0.0235
     31    H       29.1490   -1.0570    7.2300 H       2  LIG2        0.0235
     32    H       28.3500    0.2910    6.4630 H       2  LIG2        0.0235
     33    H       29.9540    0.5010    7.1120 H       2  LIG2        0.0235
     34    H       29.0490    2.6100    6.5400 H       2  LIG2        0.0268
     35    H       28.6250    4.1260    5.7850 H       2  LIG2        0.0268
     36    H       31.2780    1.8720    5.5520 H       2  LIG2        0.0233
     37    H       31.4560    3.5800    5.1960 H       2  LIG2        0.0233
     38    H       31.7000    2.3930    3.9230 H       2  LIG2        0.0233
     39    H       24.6930    1.4740    4.6010 H       2  LIG2        0.0257
     40    H       24.2700    0.3780    3.2970 H       2  LIG2        0.0257
     41    H       24.8780    1.9820    2.9290 H       2  LIG2        0.0257
     42    H       26.0990   -0.6300    2.1300 H       2  LIG2        0.2102
@<TRIPOS>BOND
     1    42     1    1
     2     1     9    1
     3    19     5    1
     4    41    16    1
     5    20     6    1
     6    40    16    1
     7    17     2    1
     8    21     7    1
     9    18     4    1
    10    16     9    1
    11    16    39    1
    12     9     6    1
    13     9    11    1
    14     5     6    1
    15     5     2    1
    16     5     8    1
    17    23     8    1
    18     6    10    1
    19    38    15    1
    20     2     4    1
    21     2     3    1
    22     4     7    1
    23     4     3    1
    24     7    11    1
    25     7    22    1
    26     8    15    1
    27     8    14    1
    28    26    11    1
    29    30    12    1
    30    11    27    1
    31    15    37    1
    32    15    36    1
    33    24    10    1
    34     3    12    1
    35     3    13    1
    36    10    14    1
    37    10    25    1
    38    12    29    1
    39    12    28    1
    40    14    35    1
    41    14    34    1
    42    32    13    1
    43    13    33    1
    44    13    31    1
@<TRIPOS>MOLECULE
11996452_1_run_12.pdb
 42 44 0 0 0
SMALL
GASTEIGER

@<TRIPOS>ATOM
      1    O       28.3480    1.6430    6.4510 O.3     2  LIG2       -0.3886
      2    C       25.3630    2.0610    4.6770 C.3     2  LIG2       -0.0289
      3    C       25.1350    1.4410    3.3060 C.3     2  LIG2       -0.0284
      4    C       25.8510    0.6290    4.3640 C.3     2  LIG2       -0.0319
      5    C       26.2150    3.3250    5.0560 C.3     2  LIG2       -0.0294
      6    C       27.7570    3.4370    4.9330 C.3     2  LIG2       -0.0090
      7    C       27.3090    0.1310    4.2140 C.3     2  LIG2       -0.0468
      8    C       25.7290    4.6680    4.4500 C.3     2  LIG2       -0.0404
      9    C       28.6500    2.1890    5.1750 C.3     2  LIG2        0.0664
     10    C       28.0410    4.2960    3.6810 C.3     2  LIG2       -0.0471
     11    C       28.5080    1.0860    4.1040 C.3     2  LIG2       -0.0237
     12    C       23.6940    1.0000    2.9780 C.3     2  LIG2       -0.0593
     13    C       25.8630    1.9330    2.0440 C.3     2  LIG2       -0.0593
     14    C       26.7260    5.0090    3.3300 C.3     2  LIG2       -0.0498
     15    C       24.2510    4.7390    4.0190 C.3     2  LIG2       -0.0621
     16    C       30.1400    2.5990    5.2800 C.3     2  LIG2       -0.0358
     17    H       24.4610    2.0990    5.2920 H       2  LIG2        0.0312
     18    H       25.2810   -0.1270    4.9060 H       2  LIG2        0.0309
     19    H       26.0290    3.3930    6.1300 H       2  LIG2        0.0310
     20    H       28.0330    4.1070    5.7540 H       2  LIG2        0.0331
     21    H       27.5010   -0.5420    5.0520 H       2  LIG2        0.0269
     22    H       27.3320   -0.5270    3.3460 H       2  LIG2        0.0269
     23    H       25.8490    5.4320    5.2210 H       2  LIG2        0.0301
     24    H       28.8130    5.0350    3.9030 H       2  LIG2        0.0269
     25    H       28.4210    3.7210    2.8400 H       2  LIG2        0.0269
     26    H       29.3920    0.4480    4.1460 H       2  LIG2        0.0293
     27    H       28.5790    1.5080    3.1050 H       2  LIG2        0.0293
     28    H       23.6890    0.2050    2.2330 H       2  LIG2        0.0235
     29    H       23.1090    1.8310    2.5840 H       2  LIG2        0.0235
     30    H       23.1680    0.6220    3.8550 H       2  LIG2        0.0235
     31    H       25.9730    1.1240    1.3220 H       2  LIG2        0.0235
     32    H       26.8520    2.3200    2.2400 H       2  LIG2        0.0235
     33    H       25.3020    2.7300    1.5560 H       2  LIG2        0.0235
     34    H       26.3590    4.6890    2.3550 H       2  LIG2        0.0268
     35    H       26.8790    6.0870    3.2630 H       2  LIG2        0.0268
     36    H       24.0330    4.0690    3.1880 H       2  LIG2        0.0233
     37    H       23.9880    5.7470    3.6970 H       2  LIG2        0.0233
     38    H       23.5870    4.4770    4.8430 H       2  LIG2        0.0233
     39    H       30.5110    2.9970    4.3340 H       2  LIG2        0.0257
     40    H       30.7800    1.7540    5.5440 H       2  LIG2        0.0257
     41    H       30.2970    3.3670    6.0390 H       2  LIG2        0.0257
     42    H       28.9280    0.8940    6.6050 H       2  LIG2        0.2102
@<TRIPOS>BOND
     1    31    13    1
     2    33    13    1
     3    13    32    1
     4    13     3    1
     5    28    12    1
     6    34    14    1
     7    29    12    1
     8    25    10    1
     9    12     3    1
    10    12    30    1
    11    27    11    1
    12    36    15    1
    13    35    14    1
    14     3     4    1
    15     3     2    1
    16    14    10    1
    17    14     8    1
    18    22     7    1
    19    10    24    1
    20    10     6    1
    21    37    15    1
    22    15     8    1
    23    15    38    1
    24    11    26    1
    25    11     7    1
    26    11     9    1
    27     7     4    1
    28     7    21    1
    29    39    16    1
    30     4     2    1
    31     4    18    1
    32     8     5    1
    33     8    23    1
    34     2     5    1
    35     2    17    1
    36     6     5    1
    37     6     9    1
    38     6    20    1
    39     5    19    1
    40     9    16    1
    41     9     1    1
    42    16    40    1
    43    16    41    1
    44     1    42    1
@<TRIPOS>MOLECULE
11996452_1_run_18.pdb
 42 44 0 0 0
SMALL
GASTEIGER

@<TRIPOS>ATOM
      1    O       28.8270    2.9650    3.1050 O.3     2  LIG2       -0.3886
      2    C       28.9760   -0.4770    3.7090 C.3     2  LIG2       -0.0289
      3    C       27.8180   -1.2480    4.3260 C.3     2  LIG2       -0.0284
      4    C       27.5170   -0.1760    3.3000 C.3     2  LIG2       -0.0319
      5    C       30.0110    0.4730    4.4130 C.3     2  LIG2       -0.0294
      6    C       29.6740    1.8350    5.0740 C.3     2  LIG2       -0.0090
      7    C       26.6830    1.0900    3.6100 C.3     2  LIG2       -0.0468
      8    C       30.9260   -0.1990    5.4700 C.3     2  LIG2       -0.0404
      9    C       28.5540    2.7330    4.4790 C.3     2  LIG2        0.0664
     10    C       29.6760    1.6000    6.6000 C.3     2  LIG2       -0.0471
     11    C       27.1300    2.1550    4.6240 C.3     2  LIG2       -0.0237
     12    C       27.6290   -2.7040    3.8550 C.3     2  LIG2       -0.0593
     13    C       27.4070   -1.0860    5.7990 C.3     2  LIG2       -0.0593
     14    C       30.3990    0.2650    6.8380 C.3     2  LIG2       -0.0498
     15    C       31.1170   -1.7240    5.3540 C.3     2  LIG2       -0.0621
     16    C       28.5920    4.1430    5.1170 C.3     2  LIG2       -0.0358
     17    H       29.5360   -1.0520    2.9700 H       2  LIG2        0.0312
     18    H       27.3040   -0.4880    2.2760 H       2  LIG2        0.0309
     19    H       30.6600    0.7380    3.5750 H       2  LIG2        0.0310
     20    H       30.5820    2.4280    4.9190 H       2  LIG2        0.0331
     21    H       26.5080    1.5960    2.6580 H       2  LIG2        0.0269
     22    H       25.6890    0.7520    3.9060 H       2  LIG2        0.0269
     23    H       31.9230    0.2330    5.3550 H       2  LIG2        0.0301
     24    H       30.2160    2.4060    7.1000 H       2  LIG2        0.0269
     25    H       28.6810    1.6000    7.0390 H       2  LIG2        0.0269
     26    H       26.4130    2.9720    4.5220 H       2  LIG2        0.0293
     27    H       26.9510    1.8220    5.6430 H       2  LIG2        0.0293
     28    H       26.5920   -3.0200    3.9710 H       2  LIG2        0.0235
     29    H       28.2530   -3.3870    4.4310 H       2  LIG2        0.0235
     30    H       27.8900   -2.8360    2.8050 H       2  LIG2        0.0235
     31    H       26.3430   -1.2870    5.9270 H       2  LIG2        0.0235
     32    H       27.5910   -0.0970    6.1920 H       2  LIG2        0.0235
     33    H       27.9490   -1.7850    6.4340 H       2  LIG2        0.0235
     34    H       29.7240   -0.4690    7.2780 H       2  LIG2        0.0268
     35    H       31.2190    0.3920    7.5460 H       2  LIG2        0.0268
     36    H       30.1910   -2.2680    5.5350 H       2  LIG2        0.0233
     37    H       31.8470   -2.0810    6.0800 H       2  LIG2        0.0233
     38    H       31.4800   -2.0010    4.3640 H       2  LIG2        0.0233
     39    H       28.3490    4.1060    6.1810 H       2  LIG2        0.0257
     40    H       27.8770    4.8240    4.6510 H       2  LIG2        0.0257
     41    H       29.5770    4.6040    5.0260 H       2  LIG2        0.0257
     42    H       29.6040    3.5240    3.0400 H       2  LIG2        0.2102
@<TRIPOS>BOND
     1    18     4    1
     2    21     7    1
     3    30    12    1
     4    17     2    1
     5    42     1    1
     6     1     9    1
     7     4     7    1
     8     4     2    1
     9     4     3    1
    10    19     5    1
    11     7    22    1
    12     7    11    1
    13     2     3    1
    14     2     5    1
    15    12    28    1
    16    12     3    1
    17    12    29    1
    18     3    13    1
    19    38    15    1
    20     5     6    1
    21     5     8    1
    22     9    11    1
    23     9     6    1
    24     9    16    1
    25    26    11    1
    26    11    27    1
    27    40    16    1
    28    20     6    1
    29    41    16    1
    30     6    10    1
    31    16    39    1
    32    15     8    1
    33    15    36    1
    34    15    37    1
    35    23     8    1
    36     8    14    1
    37    13    31    1
    38    13    32    1
    39    13    33    1
    40    10    14    1
    41    10    25    1
    42    10    24    1
    43    14    34    1
    44    14    35    1
@<TRIPOS>MOLECULE
11996452_1_run_10.pdb
 42 44 0 0 0
SMALL
GASTEIGER

@<TRIPOS>ATOM
      1    O       25.2570    0.5330    4.7470 O.3     2  LIG2       -0.3886
      2    C       28.5420    1.0110    5.8470 C.3     2  LIG2       -0.0289
      3    C       29.4070    2.1640    5.3590 C.3     2  LIG2       -0.0284
      4    C       27.9450    2.4230    5.6540 C.3     2  LIG2       -0.0319
      5    C       28.1670   -0.3210    5.1030 C.3     2  LIG2       -0.0294
      6    C       27.2870   -0.4210    3.8300 C.3     2  LIG2       -0.0090
      7    C       26.9280    2.8880    4.5850 C.3     2  LIG2       -0.0468
      8    C       29.3560   -1.2590    4.7680 C.3     2  LIG2       -0.0404
      9    C       26.1140    0.5750    3.6150 C.3     2  LIG2        0.0664
     10    C       28.2470   -0.6710    2.6470 C.3     2  LIG2       -0.0471
     11    C       26.5530    2.0330    3.3640 C.3     2  LIG2       -0.0237
     12    C       30.4130    2.7490    6.3700 C.3     2  LIG2       -0.0593
     13    C       29.9590    2.2340    3.9260 C.3     2  LIG2       -0.0593
     14    C       29.5840   -1.1220    3.2530 C.3     2  LIG2       -0.0498
     15    C       30.6320   -1.0910    5.6150 C.3     2  LIG2       -0.0621
     16    C       25.2160    0.1110    2.4420 C.3     2  LIG2       -0.0358
     17    H       28.7240    0.7430    6.8900 H       2  LIG2        0.0312
     18    H       27.6870    2.8930    6.6050 H       2  LIG2        0.0309
     19    H       27.5830   -0.8350    5.8700 H       2  LIG2        0.0310
     20    H       26.7820   -1.3860    3.9410 H       2  LIG2        0.0331
     21    H       26.0040    3.1330    5.1120 H       2  LIG2        0.0269
     22    H       27.2750    3.8540    4.2160 H       2  LIG2        0.0269
     23    H       29.0180   -2.2840    4.9430 H       2  LIG2        0.0301
     24    H       27.8490   -1.4580    2.0040 H       2  LIG2        0.0269
     25    H       28.3730    0.1960    2.0010 H       2  LIG2        0.0269
     26    H       25.7300    2.5640    2.8800 H       2  LIG2        0.0293
     27    H       27.3290    2.0770    2.6050 H       2  LIG2        0.0293
     28    H       30.6480    3.7870    6.1300 H       2  LIG2        0.0235
     29    H       31.3460    2.1870    6.3660 H       2  LIG2        0.0235
     30    H       30.0300    2.7340    7.3900 H       2  LIG2        0.0235
     31    H       30.0980    3.2710    3.6160 H       2  LIG2        0.0235
     32    H       29.3170    1.7690    3.1920 H       2  LIG2        0.0235
     33    H       30.9280    1.7410    3.8560 H       2  LIG2        0.0235
     34    H       30.3740   -0.4050    3.0310 H       2  LIG2        0.0268
     35    H       29.9010   -2.0720    2.8220 H       2  LIG2        0.0268
     36    H       31.1060   -0.1240    5.4550 H       2  LIG2        0.0233
     37    H       31.3680   -1.8560    5.3640 H       2  LIG2        0.0233
     38    H       30.4150   -1.1860    6.6790 H       2  LIG2        0.0233
     39    H       25.7530    0.1430    1.4930 H       2  LIG2        0.0257
     40    H       24.3300    0.7400    2.3290 H       2  LIG2        0.0257
     41    H       24.8630   -0.9120    2.5800 H       2  LIG2        0.0257
     42    H       25.7700    0.7590    5.5250 H       2  LIG2        0.2102
@<TRIPOS>BOND
     1    39    16    1
     2    25    10    1
     3    24    10    1
     4    40    16    1
     5    16    41    1
     6    16     9    1
     7    27    11    1
     8    10    14    1
     9    10     6    1
    10    35    14    1
    11    26    11    1
    12    34    14    1
    13    32    13    1
    14    14     8    1
    15    11     9    1
    16    11     7    1
    17     9     6    1
    18     9     1    1
    19    31    13    1
    20     6    20    1
    21     6     5    1
    22    33    13    1
    23    13     3    1
    24    22     7    1
    25     7    21    1
    26     7     4    1
    27     1    42    1
    28     8    23    1
    29     8     5    1
    30     8    15    1
    31     5     2    1
    32     5    19    1
    33     3     4    1
    34     3     2    1
    35     3    12    1
    36    37    15    1
    37    36    15    1
    38    15    38    1
    39     4     2    1
    40     4    18    1
    41     2    17    1
    42    28    12    1
    43    29    12    1
    44    12    30    1
@<TRIPOS>MOLECULE
11996452_1_run_15.pdb
 42 44 0 0 0
SMALL
GASTEIGER

@<TRIPOS>ATOM
      1    O       30.2000   -1.2770    3.0300 O.3     2  LIG2       -0.3886
      2    C       29.7580    1.9470    4.3120 C.3     2  LIG2       -0.0289
      3    C       29.8630    2.2560    5.7980 C.3     2  LIG2       -0.0284
      4    C       30.8490    1.2860    5.1830 C.3     2  LIG2       -0.0319
      5    C       28.5790    1.2620    3.5320 C.3     2  LIG2       -0.0294
      6    C       28.1290   -0.2130    3.7000 C.3     2  LIG2       -0.0090
      7    C       30.9610   -0.1990    5.6050 C.3     2  LIG2       -0.0468
      8    C       27.2310    2.0300    3.5420 C.3     2  LIG2       -0.0404
      9    C       29.1770   -1.3150    4.0140 C.3     2  LIG2        0.0664
     10    C       26.8340   -0.1880    4.5400 C.3     2  LIG2       -0.0471
     11    C       29.8160   -1.2070    5.4160 C.3     2  LIG2       -0.0237
     12    C       30.4270    3.6400    6.1780 C.3     2  LIG2       -0.0593
     13    C       28.8110    1.7900    6.8170 C.3     2  LIG2       -0.0593
     14    C       26.3150    1.2580    4.5060 C.3     2  LIG2       -0.0498
     15    C       27.2990    3.5450    3.8170 C.3     2  LIG2       -0.0621
     16    C       28.5510   -2.7230    3.8550 C.3     2  LIG2       -0.0358
     17    H       30.1250    2.7530    3.6740 H       2  LIG2        0.0312
     18    H       31.8480    1.6520    4.9380 H       2  LIG2        0.0309
     19    H       28.9470    1.3110    2.5040 H       2  LIG2        0.0310
     20    H       27.7660   -0.4870    2.7040 H       2  LIG2        0.0331
     21    H       31.8420   -0.6050    5.1050 H       2  LIG2        0.0269
     22    H       31.2370   -0.2090    6.6590 H       2  LIG2        0.0269
     23    H       26.7950    1.9300    2.5460 H       2  LIG2        0.0301
     24    H       26.0920   -0.8570    4.1010 H       2  LIG2        0.0269
     25    H       26.9740   -0.5380    5.5610 H       2  LIG2        0.0269
     26    H       30.2380   -2.1780    5.6790 H       2  LIG2        0.0293
     27    H       29.0520   -1.0760    6.1780 H       2  LIG2        0.0293
     28    H       30.8790    3.6190    7.1700 H       2  LIG2        0.0235
     29    H       29.6420    4.3960    6.1840 H       2  LIG2        0.0235
     30    H       31.1960    3.9780    5.4820 H       2  LIG2        0.0235
     31    H       29.2610    1.6510    7.8010 H       2  LIG2        0.0235
     32    H       28.3360    0.8570    6.5520 H       2  LIG2        0.0235
     33    H       28.0170    2.5300    6.9240 H       2  LIG2        0.0235
     34    H       26.3200    1.6970    5.5030 H       2  LIG2        0.0268
     35    H       25.2800    1.2870    4.1620 H       2  LIG2        0.0268
     36    H       27.6470    3.7640    4.8250 H       2  LIG2        0.0233
     37    H       26.3160    4.0040    3.7090 H       2  LIG2        0.0233
     38    H       27.9690    4.0430    3.1160 H       2  LIG2        0.0233
     39    H       27.7690   -2.8970    4.5970 H       2  LIG2        0.0257
     40    H       29.2900   -3.5180    3.9780 H       2  LIG2        0.0257
     41    H       28.0990   -2.8570    2.8710 H       2  LIG2        0.0257
     42    H       30.6840   -0.4540    3.1270 H       2  LIG2        0.2102
@<TRIPOS>BOND
     1    19     5    1
     2    23     8    1
     3    20     6    1
     4    41    16    1
     5     1    42    1
     6     1     9    1
     7    38    15    1
     8     5     8    1
     9     5     6    1
    10     5     2    1
    11     8    15    1
    12     8    14    1
    13    17     2    1
    14     6     9    1
    15     6    10    1
    16    37    15    1
    17    15    36    1
    18    16    40    1
    19    16     9    1
    20    16    39    1
    21     9    11    1
    22    24    10    1
    23    35    14    1
    24     2     4    1
    25     2     3    1
    26    14    10    1
    27    14    34    1
    28    10    25    1
    29    18     4    1
    30    21     7    1
    31     4     7    1
    32     4     3    1
    33    11     7    1
    34    11    26    1
    35    11    27    1
    36    30    12    1
    37     7    22    1
    38     3    12    1
    39     3    13    1
    40    12    29    1
    41    12    28    1
    42    32    13    1
    43    13    33    1
    44    13    31    1
@<TRIPOS>MOLECULE
11996452_1_run_1.pdb
 42 44 0 0 0
SMALL
GASTEIGER

@<TRIPOS>ATOM
      1    O       26.4450   -1.0390    5.6050 O.3     2  LIG2       -0.3886
      2    C       26.8500    2.4320    5.4560 C.3     2  LIG2       -0.0289
      3    C       26.3770    3.2580    4.2690 C.3     2  LIG2       -0.0284
      4    C       25.5010    2.1270    4.7650 C.3     2  LIG2       -0.0319
      5    C       28.1190    1.5150    5.5710 C.3     2  LIG2       -0.0294
      6    C       28.3550    0.2030    4.7780 C.3     2  LIG2       -0.0090
      7    C       25.1290    0.8960    3.9040 C.3     2  LIG2       -0.0468
      8    C       29.4850    2.2400    5.4390 C.3     2  LIG2       -0.0404
      9    C       27.1540   -0.7140    4.4180 C.3     2  LIG2        0.0664
     10    C       29.3690    0.5360    3.6620 C.3     2  LIG2       -0.0471
     11    C       26.1740   -0.1070    3.3910 C.3     2  LIG2       -0.0237
     12    C       25.8750    4.6840    4.5750 C.3     2  LIG2       -0.0593
     13    C       27.0610    3.1980    2.8930 C.3     2  LIG2       -0.0593
     14    C       30.0220    1.8720    4.0460 C.3     2  LIG2       -0.0498
     15    C       29.4990    3.7510    5.7410 C.3     2  LIG2       -0.0621
     16    C       27.6530   -2.0810    3.8890 C.3     2  LIG2       -0.0358
     17    H       26.7530    2.9510    6.4120 H       2  LIG2        0.0312
     18    H       24.6490    2.3760    5.4000 H       2  LIG2        0.0309
     19    H       28.0510    1.1870    6.6110 H       2  LIG2        0.0310
     20    H       28.9440   -0.4120    5.4660 H       2  LIG2        0.0331
     21    H       24.3800    0.3340    4.4640 H       2  LIG2        0.0269
     22    H       24.5780    1.2680    3.0400 H       2  LIG2        0.0269
     23    H       30.1630    1.7870    6.1670 H       2  LIG2        0.0301
     24    H       30.1300   -0.2440    3.6060 H       2  LIG2        0.0269
     25    H       28.9230    0.5790    2.6710 H       2  LIG2        0.0269
     26    H       25.5990   -0.9190    2.9400 H       2  LIG2        0.0293
     27    H       26.7110    0.2930    2.5360 H       2  LIG2        0.0293
     28    H       25.1710    5.0220    3.8140 H       2  LIG2        0.0235
     29    H       26.7010    5.3930    4.6050 H       2  LIG2        0.0235
     30    H       25.3620    4.7440    5.5360 H       2  LIG2        0.0235
     31    H       26.3490    3.4230    2.0980 H       2  LIG2        0.0235
     32    H       27.4920    2.2340    2.6670 H       2  LIG2        0.0235
     33    H       27.8660    3.9280    2.8250 H       2  LIG2        0.0235
     34    H       29.7910    2.6430    3.3120 H       2  LIG2        0.0268
     35    H       31.1090    1.7790    4.0630 H       2  LIG2        0.0268
     36    H       28.9150    4.3190    5.0190 H       2  LIG2        0.0233
     37    H       30.5160    4.1430    5.7130 H       2  LIG2        0.0233
     38    H       29.0990    3.9590    6.7340 H       2  LIG2        0.0233
     39    H       28.1830   -1.9720    2.9410 H       2  LIG2        0.0257
     40    H       26.8320   -2.7800    3.7170 H       2  LIG2        0.0257
     41    H       28.3390   -2.5610    4.5890 H       2  LIG2        0.0257
     42    H       26.0760   -0.2310    5.9680 H       2  LIG2        0.2102
@<TRIPOS>BOND
     1    31    13    1
     2    27    11    1
     3    32    13    1
     4    25    10    1
     5    33    13    1
     6    13     3    1
     7    26    11    1
     8    39    16    1
     9    22     7    1
    10    34    14    1
    11    11     7    1
    12    11     9    1
    13    24    10    1
    14    10    14    1
    15    10     6    1
    16    40    16    1
    17    28    12    1
    18    16     9    1
    19    16    41    1
    20     7    21    1
    21     7     4    1
    22    14    35    1
    23    14     8    1
    24     3    12    1
    25     3     4    1
    26     3     2    1
    27     9     6    1
    28     9     1    1
    29    12    29    1
    30    12    30    1
    31     4    18    1
    32     4     2    1
    33     6    20    1
    34     6     5    1
    35    36    15    1
    36     8     5    1
    37     8    15    1
    38     8    23    1
    39     2     5    1
    40     2    17    1
    41     5    19    1
    42     1    42    1
    43    37    15    1
    44    15    38    1
@<TRIPOS>MOLECULE
11996452_1_run_4.pdb
 42 44 0 0 0
SMALL
GASTEIGER

@<TRIPOS>ATOM
      1    O       30.8430    1.4290    4.3290 O.3     2  LIG2       -0.3886
      2    C       27.6970    2.6410    3.3960 C.3     2  LIG2       -0.0289
      3    C       26.8160    3.4380    4.3450 C.3     2  LIG2       -0.0284
      4    C       28.3060    3.7060    4.3350 C.3     2  LIG2       -0.0319
      5    C       27.9640    1.0930    3.3680 C.3     2  LIG2       -0.0294
      6    C       28.7090    0.2900    4.4670 C.3     2  LIG2       -0.0090
      7    C       29.2200    3.4810    5.5630 C.3     2  LIG2       -0.0468
      8    C       26.7260    0.2030    3.0800 C.3     2  LIG2       -0.0404
      9    C       29.8780    0.9460    5.2520 C.3     2  LIG2        0.0664
     10    C       27.6290   -0.4610    5.2750 C.3     2  LIG2       -0.0471
     11    C       29.4500    2.0970    6.1890 C.3     2  LIG2       -0.0237
     12    C       25.9300    4.5300    3.7120 C.3     2  LIG2       -0.0593
     13    C       26.1240    2.8030    5.5620 C.3     2  LIG2       -0.0593
     14    C       26.3490   -0.4400    4.4260 C.3     2  LIG2       -0.0498
     15    C       25.5450    0.8740    2.3510 C.3     2  LIG2       -0.0621
     16    C       30.6420   -0.1170    6.0790 C.3     2  LIG2       -0.0358
     17    H       27.6150    2.9600    2.3550 H       2  LIG2        0.0312
     18    H       28.6690    4.5770    3.7880 H       2  LIG2        0.0309
     19    H       28.6100    1.0040    2.4910 H       2  LIG2        0.0310
     20    H       29.2000   -0.5150    3.9100 H       2  LIG2        0.0331
     21    H       30.1980    3.8940    5.3090 H       2  LIG2        0.0269
     22    H       28.8600    4.1430    6.3520 H       2  LIG2        0.0269
     23    H       27.0550   -0.6070    2.4260 H       2  LIG2        0.0301
     24    H       27.9410   -1.4940    5.4440 H       2  LIG2        0.0269
     25    H       27.4590   -0.0430    6.2650 H       2  LIG2        0.0269
     26    H       30.2320    2.2420    6.9370 H       2  LIG2        0.0293
     27    H       28.6030    1.8000    6.8010 H       2  LIG2        0.0293
     28    H       25.6970    5.3120    4.4360 H       2  LIG2        0.0235
     29    H       24.9880    4.1150    3.3550 H       2  LIG2        0.0235
     30    H       26.4130    5.0130    2.8630 H       2  LIG2        0.0235
     31    H       25.9780    3.5400    6.3530 H       2  LIG2        0.0235
     32    H       26.6770    1.9820    5.9940 H       2  LIG2        0.0235
     33    H       25.1410    2.4150    5.2940 H       2  LIG2        0.0235
     34    H       25.5580    0.1160    4.9280 H       2  LIG2        0.0268
     35    H       25.9680   -1.4510    4.2770 H       2  LIG2        0.0268
     36    H       25.0810    1.6530    2.9530 H       2  LIG2        0.0233
     37    H       24.7700    0.1450    2.1140 H       2  LIG2        0.0233
     38    H       25.8670    1.3240    1.4110 H       2  LIG2        0.0233
     39    H       30.0130   -0.5380    6.8650 H       2  LIG2        0.0257
     40    H       31.5260    0.2990    6.5660 H       2  LIG2        0.0257
     41    H       30.9820   -0.9470    5.4570 H       2  LIG2        0.0257
     42    H       31.2850    0.6770    3.9310 H       2  LIG2        0.2102
@<TRIPOS>BOND
     1    38    15    1
     2    37    15    1
     3    15    36    1
     4    15     8    1
     5    17     2    1
     6    23     8    1
     7    19     5    1
     8    30    12    1
     9     8     5    1
    10     8    14    1
    11    29    12    1
    12     5     2    1
    13     5     6    1
    14     2     4    1
    15     2     3    1
    16    12     3    1
    17    12    28    1
    18    18     4    1
    19    20     6    1
    20    42     1    1
    21    35    14    1
    22     1     9    1
    23     4     3    1
    24     4     7    1
    25     3    13    1
    26    14    34    1
    27    14    10    1
    28     6     9    1
    29     6    10    1
    30     9    16    1
    31     9    11    1
    32    10    24    1
    33    10    25    1
    34    33    13    1
    35    21     7    1
    36    41    16    1
    37    13    32    1
    38    13    31    1
    39     7    11    1
    40     7    22    1
    41    16    40    1
    42    16    39    1
    43    11    27    1
    44    11    26    1
@<TRIPOS>MOLECULE
11996452_1_run_12.pdb
 42 44 0 0 0
SMALL
GASTEIGER

@<TRIPOS>ATOM
      1    O       29.8370    1.8430    7.1050 O.3     2  LIG2       -0.3886
      2    C       27.4570    0.0150    5.3080 C.3     2  LIG2       -0.0289
      3    C       27.8330   -0.8970    4.1500 C.3     2  LIG2       -0.0284
      4    C       28.7190   -0.8750    5.3780 C.3     2  LIG2       -0.0319
      5    C       27.3630    1.5830    5.3350 C.3     2  LIG2       -0.0294
      6    C       28.5580    2.5570    5.1750 C.3     2  LIG2       -0.0090
      7    C       30.2010   -0.4290    5.3520 C.3     2  LIG2       -0.0468
      8    C       26.2910    2.2050    4.4020 C.3     2  LIG2       -0.0404
      9    C       29.9570    2.1700    5.7280 C.3     2  LIG2        0.0664
     10    C       28.4810    3.1210    3.7390 C.3     2  LIG2       -0.0471
     11    C       30.6350    0.9980    4.9850 C.3     2  LIG2       -0.0237
     12    C       26.9750   -2.1640    3.9610 C.3     2  LIG2       -0.0593
     13    C       28.3260   -0.3570    2.7970 C.3     2  LIG2       -0.0593
     14    C       27.0660    2.8190    3.2230 C.3     2  LIG2       -0.0498
     15    C       25.1240    1.2910    3.9790 C.3     2  LIG2       -0.0621
     16    C       30.9070    3.3930    5.7100 C.3     2  LIG2       -0.0358
     17    H       26.6180   -0.3570    5.8990 H       2  LIG2        0.0312
     18    H       28.6130   -1.6820    6.1040 H       2  LIG2        0.0309
     19    H       27.0130    1.7570    6.3550 H       2  LIG2        0.0310
     20    H       28.2740    3.4180    5.7890 H       2  LIG2        0.0331
     21    H       30.6170   -0.6570    6.3360 H       2  LIG2        0.0269
     22    H       30.7270   -1.1140    4.6870 H       2  LIG2        0.0269
     23    H       25.8340    3.0360    4.9440 H       2  LIG2        0.0301
     24    H       28.6460    4.2000    3.7530 H       2  LIG2        0.0269
     25    H       29.2430    2.7180    3.0750 H       2  LIG2        0.0269
     26    H       31.7080    1.0360    5.1860 H       2  LIG2        0.0293
     27    H       30.5990    1.1520    3.9100 H       2  LIG2        0.0293
     28    H       27.5390   -2.9450    3.4510 H       2  LIG2        0.0235
     29    H       26.0860   -1.9510    3.3670 H       2  LIG2        0.0235
     30    H       26.6370   -2.5800    4.9110 H       2  LIG2        0.0235
     31    H       28.9870   -1.0760    2.3120 H       2  LIG2        0.0235
     32    H       28.8710    0.5710    2.8760 H       2  LIG2        0.0235
     33    H       27.4900   -0.1760    2.1220 H       2  LIG2        0.0235
     34    H       27.0990    2.1430    2.3700 H       2  LIG2        0.0268
     35    H       26.5800    3.7320    2.8750 H       2  LIG2        0.0268
     36    H       25.4560    0.4630    3.3560 H       2  LIG2        0.0233
     37    H       24.3820    1.8480    3.4060 H       2  LIG2        0.0233
     38    H       24.6160    0.8730    4.8490 H       2  LIG2        0.0233
     39    H       31.1180    3.7180    4.6900 H       2  LIG2        0.0257
     40    H       31.8670    3.1750    6.1810 H       2  LIG2        0.0257
     41    H       30.4790    4.2470    6.2390 H       2  LIG2        0.0257
     42    H       29.2640    1.0780    7.1870 H       2  LIG2        0.2102
@<TRIPOS>BOND
     1    33    13    1
     2    31    13    1
     3    34    14    1
     4    13    32    1
     5    13     3    1
     6    35    14    1
     7    25    10    1
     8    14    10    1
     9    14     8    1
    10    36    15    1
    11    29    12    1
    12    37    15    1
    13    28    12    1
    14    10    24    1
    15    10     6    1
    16    27    11    1
    17    12     3    1
    18    12    30    1
    19    15     8    1
    20    15    38    1
    21     3     2    1
    22     3     4    1
    23     8    23    1
    24     8     5    1
    25    22     7    1
    26    39    16    1
    27    11    26    1
    28    11     7    1
    29    11     9    1
    30     6     5    1
    31     6     9    1
    32     6    20    1
    33     2     5    1
    34     2     4    1
    35     2    17    1
    36     5    19    1
    37     7     4    1
    38     7    21    1
    39     4    18    1
    40    16     9    1
    41    16    40    1
    42    16    41    1
    43     9     1    1
    44     1    42    1
@<TRIPOS>MOLECULE
11996452_1_run_12.pdb
 42 44 0 0 0
SMALL
GASTEIGER

@<TRIPOS>ATOM
      1    O       25.8490    0.8520    1.5770 O.3     2  LIG2       -0.3886
      2    C       28.2410    2.6080    3.4290 C.3     2  LIG2       -0.0289
      3    C       28.7970    2.0870    4.7460 C.3     2  LIG2       -0.0284
      4    C       28.5720    1.1100    3.6110 C.3     2  LIG2       -0.0319
      5    C       26.8460    3.2740    3.1460 C.3     2  LIG2       -0.0294
      6    C       25.4730    2.5620    3.2520 C.3     2  LIG2       -0.0090
      7    C       27.5870   -0.0800    3.6940 C.3     2  LIG2       -0.0468
      8    C       26.5870    4.6210    3.8720 C.3     2  LIG2       -0.0404
      9    C       25.3470    1.0570    2.8900 C.3     2  LIG2        0.0664
     10    C       24.8240    3.0450    4.5670 C.3     2  LIG2       -0.0471
     11    C       26.0710    0.1040    3.8650 C.3     2  LIG2       -0.0237
     12    C       30.2670    2.4300    5.0590 C.3     2  LIG2       -0.0593
     13    C       27.9580    2.0270    6.0330 C.3     2  LIG2       -0.0593
     14    C       25.5910    4.3040    5.0000 C.3     2  LIG2       -0.0498
     15    C       27.8270    5.4110    4.3310 C.3     2  LIG2       -0.0621
     16    C       23.8580    0.6430    2.7950 C.3     2  LIG2       -0.0358
     17    H       28.9740    3.1570    2.8350 H       2  LIG2        0.0312
     18    H       29.4340    0.8050    3.0160 H       2  LIG2        0.0309
     19    H       26.9390    3.5160    2.0840 H       2  LIG2        0.0310
     20    H       24.8660    3.0570    2.4860 H       2  LIG2        0.0331
     21    H       27.7460   -0.6850    2.7990 H       2  LIG2        0.0269
     22    H       27.9330   -0.7240    4.5030 H       2  LIG2        0.0269
     23    H       26.0660    5.2730    3.1670 H       2  LIG2        0.0301
     24    H       23.7750    3.2930    4.3960 H       2  LIG2        0.0269
     25    H       24.8210    2.2900    5.3510 H       2  LIG2        0.0269
     26    H       25.6430   -0.8940    3.7550 H       2  LIG2        0.0293
     27    H       25.8220    0.3450    4.8950 H       2  LIG2        0.0293
     28    H       30.7050    1.6950    5.7340 H       2  LIG2        0.0235
     29    H       30.3500    3.4080    5.5320 H       2  LIG2        0.0235
     30    H       30.8870    2.4520    4.1620 H       2  LIG2        0.0235
     31    H       28.3030    1.2210    6.6820 H       2  LIG2        0.0235
     32    H       26.9060    1.8600    5.8550 H       2  LIG2        0.0235
     33    H       28.0400    2.9560    6.5960 H       2  LIG2        0.0235
     34    H       26.0990    4.1430    5.9500 H       2  LIG2        0.0268
     35    H       24.9050    5.1380    5.1550 H       2  LIG2        0.0268
     36    H       28.3850    4.8860    5.1050 H       2  LIG2        0.0233
     37    H       27.5410    6.3800    4.7420 H       2  LIG2        0.0233
     38    H       28.5060    5.5990    3.4990 H       2  LIG2        0.0233
     39    H       23.3630    0.7130    3.7650 H       2  LIG2        0.0257
     40    H       23.7380   -0.3860    2.4500 H       2  LIG2        0.0257
     41    H       23.3030    1.2780    2.1020 H       2  LIG2        0.0257
     42    H       25.7840   -0.0830    1.3700 H       2  LIG2        0.2102
@<TRIPOS>BOND
     1    42     1    1
     2     1     9    1
     3    19     5    1
     4    41    16    1
     5    40    16    1
     6    20     6    1
     7    16     9    1
     8    16    39    1
     9    21     7    1
    10    17     2    1
    11     9     6    1
    12     9    11    1
    13    18     4    1
    14     5     6    1
    15     5     2    1
    16     5     8    1
    17    23     8    1
    18     6    10    1
    19     2     4    1
    20     2     3    1
    21    38    15    1
    22     4     7    1
    23     4     3    1
    24     7    11    1
    25     7    22    1
    26    26    11    1
    27    11    27    1
    28     8    15    1
    29     8    14    1
    30    30    12    1
    31    15    37    1
    32    15    36    1
    33    24    10    1
    34    10    14    1
    35    10    25    1
    36     3    12    1
    37     3    13    1
    38    14    35    1
    39    14    34    1
    40    12    29    1
    41    12    28    1
    42    32    13    1
    43    13    33    1
    44    13    31    1
