@<TRIPOS>MOLECULE
11996452_run_12.pdb
 42 44 0 0 0
SMALL
GASTEIGER

@<TRIPOS>ATOM
      1    O       29.2280    3.7210    6.4830 O.3     2  LIG2       -0.3886
      2    C       28.3810    0.2840    3.7810 C.3     2  LIG2       -0.0289
      3    C       28.7000   -1.2050    3.8220 C.3     2  LIG2       -0.0284
      4    C       29.6330   -0.2350    4.5050 C.3     2  LIG2       -0.0319
      5    C       27.2550    0.9400    4.6330 C.3     2  LIG2       -0.0294
      6    C       27.6580    2.2660    5.3610 C.3     2  LIG2       -0.0090
      7    C       29.7050   -0.0090    6.0280 C.3     2  LIG2       -0.0468
      8    C       25.9880    1.3040    3.8200 C.3     2  LIG2       -0.0404
      9    C       29.1750    2.5780    5.6440 C.3     2  LIG2        0.0664
     10    C       26.8500    3.3930    4.6690 C.3     2  LIG2       -0.0471
     11    C       29.9330    1.4630    6.4380 C.3     2  LIG2       -0.0237
     12    C       27.8510   -2.2060    4.6410 C.3     2  LIG2       -0.0593
     13    C       29.1900   -1.8310    2.5020 C.3     2  LIG2       -0.0593
     14    C       26.1910    2.7710    3.4380 C.3     2  LIG2       -0.0498
     15    C       25.6470    0.3810    2.6320 C.3     2  LIG2       -0.0621
     16    C       29.9970    3.0230    4.4010 C.3     2  LIG2       -0.0358
     17    H       28.5430    0.8120    2.8410 H       2  LIG2        0.0312
     18    H       30.6090   -0.0980    4.0370 H       2  LIG2        0.0309
     19    H       26.9380    0.2320    5.3970 H       2  LIG2        0.0310
     20    H       27.2110    2.1730    6.3550 H       2  LIG2        0.0331
     21    H       28.8060   -0.3640    6.5260 H       2  LIG2        0.0269
     22    H       30.5110   -0.6210    6.4360 H       2  LIG2        0.0269
     23    H       25.1330    1.2580    4.4980 H       2  LIG2        0.0301
     24    H       26.0790    3.7640    5.3470 H       2  LIG2        0.0269
     25    H       27.4480    4.2610    4.3940 H       2  LIG2        0.0269
     26    H       29.6650    1.5210    7.4960 H       2  LIG2        0.0293
     27    H       31.0060    1.6620    6.4050 H       2  LIG2        0.0293
     28    H       28.4260   -3.1070    4.8580 H       2  LIG2        0.0235
     29    H       26.9670   -2.5080    4.0810 H       2  LIG2        0.0235
     30    H       27.5030   -1.8260    5.5980 H       2  LIG2        0.0235
     31    H       29.7990   -2.7160    2.6900 H       2  LIG2        0.0235
     32    H       29.7980   -1.1370    1.9200 H       2  LIG2        0.0235
     33    H       28.3490   -2.1280    1.8750 H       2  LIG2        0.0235
     34    H       26.8470    2.8560    2.5690 H       2  LIG2        0.0268
     35    H       25.2510    3.2650    3.1920 H       2  LIG2        0.0268
     36    H       26.4060    0.4160    1.8510 H       2  LIG2        0.0233
     37    H       24.6980    0.6690    2.1780 H       2  LIG2        0.0233
     38    H       25.5510   -0.6560    2.9570 H       2  LIG2        0.0233
     39    H       30.1050    2.2470    3.6490 H       2  LIG2        0.0257
     40    H       31.0130    3.3130    4.6790 H       2  LIG2        0.0257
     41    H       29.5620    3.8850    3.8980 H       2  LIG2        0.0257
     42    H       28.8490    4.4640    6.0080 H       2  LIG2        0.2102
@<TRIPOS>BOND
     1    36    15    1
     2    33    13    1
     3    32    13    1
     4    37    15    1
     5    13    31    1
     6    13     3    1
     7    34    14    1
     8    15    38    1
     9    15     8    1
    10    17     2    1
    11    35    14    1
    12    14     8    1
    13    14    10    1
    14    39    16    1
    15     2     3    1
    16     2     4    1
    17     2     5    1
    18     8    23    1
    19     8     5    1
    20     3     4    1
    21     3    12    1
    22    41    16    1
    23    18     4    1
    24    29    12    1
    25    25    10    1
    26    16    40    1
    27    16     9    1
    28     4     7    1
    29     5     6    1
    30     5    19    1
    31    12    28    1
    32    12    30    1
    33    10    24    1
    34    10     6    1
    35     6     9    1
    36     6    20    1
    37     9    11    1
    38     9     1    1
    39    42     1    1
    40     7    22    1
    41     7    11    1
    42     7    21    1
    43    27    11    1
    44    11    26    1
@<TRIPOS>MOLECULE
11996452_run_12.pdb
 42 44 0 0 0
SMALL
GASTEIGER

@<TRIPOS>ATOM
      1    O       30.1460    0.2810    5.8720 O.3     2  LIG2       -0.3886
      2    C       26.7300    1.5070    3.2900 C.3     2  LIG2       -0.0289
      3    C       25.3910    0.8770    2.9270 C.3     2  LIG2       -0.0284
      4    C       26.5550   -0.0200    3.2770 C.3     2  LIG2       -0.0319
      5    C       27.0050    2.2050    4.6540 C.3     2  LIG2       -0.0294
      6    C       28.3580    1.8180    5.3400 C.3     2  LIG2       -0.0090
      7    C       26.7250   -0.7560    4.6190 C.3     2  LIG2       -0.0468
      8    C       27.0320    3.7510    4.5700 C.3     2  LIG2       -0.0404
      9    C       29.0720    0.4670    4.9630 C.3     2  LIG2        0.0664
     10    C       29.2400    3.0910    5.2870 C.3     2  LIG2       -0.0471
     11    C       28.1820   -0.8100    5.1300 C.3     2  LIG2       -0.0237
     12    C       24.1580    0.9790    3.8550 C.3     2  LIG2       -0.0593
     13    C       24.9870    0.9480    1.4430 C.3     2  LIG2       -0.0593
     14    C       28.5120    4.0960    4.3950 C.3     2  LIG2       -0.0498
     15    C       26.1030    4.3970    3.5210 C.3     2  LIG2       -0.0621
     16    C       29.7840    0.4630    3.5810 C.3     2  LIG2       -0.0358
     17    H       27.3240    1.9380    2.4830 H       2  LIG2        0.0312
     18    H       26.9810   -0.5940    2.4520 H       2  LIG2        0.0309
     19    H       26.2040    1.9480    5.3450 H       2  LIG2        0.0310
     20    H       28.0990    1.7010    6.3960 H       2  LIG2        0.0331
     21    H       26.1100   -0.3110    5.3980 H       2  LIG2        0.0269
     22    H       26.3480   -1.7740    4.5130 H       2  LIG2        0.0269
     23    H       26.7180    4.1430    5.5390 H       2  LIG2        0.0301
     24    H       29.3490    3.5060    6.2910 H       2  LIG2        0.0269
     25    H       30.2530    2.9120    4.9270 H       2  LIG2        0.0269
     26    H       28.1160   -1.0750    6.1880 H       2  LIG2        0.0293
     27    H       28.6770   -1.6590    4.6550 H       2  LIG2        0.0293
     28    H       23.4460    0.1820    3.6330 H       2  LIG2        0.0235
     29    H       23.6430    1.9270    3.7070 H       2  LIG2        0.0235
     30    H       24.3810    0.9040    4.9160 H       2  LIG2        0.0235
     31    H       24.3020    0.1400    1.1830 H       2  LIG2        0.0235
     32    H       25.8490    0.8680    0.7780 H       2  LIG2        0.0235
     33    H       24.4930    1.8930    1.2180 H       2  LIG2        0.0235
     34    H       28.8160    3.9730    3.3540 H       2  LIG2        0.0268
     35    H       28.7310    5.1240    4.6840 H       2  LIG2        0.0268
     36    H       26.3850    4.1340    2.5020 H       2  LIG2        0.0233
     37    H       26.1320    5.4850    3.5970 H       2  LIG2        0.0233
     38    H       25.0680    4.0880    3.6720 H       2  LIG2        0.0233
     39    H       29.1040    0.5540    2.7400 H       2  LIG2        0.0257
     40    H       30.3370   -0.4660    3.4200 H       2  LIG2        0.0257
     41    H       30.5100    1.2690    3.4820 H       2  LIG2        0.0257
     42    H       30.6200   -0.5150    5.6230 H       2  LIG2        0.2102
@<TRIPOS>BOND
     1    32    13    1
     2    31    13    1
     3    33    13    1
     4    13     3    1
     5    18     4    1
     6    17     2    1
     7    36    15    1
     8    39    16    1
     9     3     4    1
    10     3     2    1
    11     3    12    1
    12     4     2    1
    13     4     7    1
    14     2     5    1
    15    34    14    1
    16    40    16    1
    17    41    16    1
    18    15    37    1
    19    15    38    1
    20    15     8    1
    21    16     9    1
    22    28    12    1
    23    29    12    1
    24    12    30    1
    25    14     8    1
    26    14    35    1
    27    14    10    1
    28    22     7    1
    29     8     5    1
    30     8    23    1
    31     7    11    1
    32     7    21    1
    33     5     6    1
    34     5    19    1
    35    27    11    1
    36    25    10    1
    37     9    11    1
    38     9     6    1
    39     9     1    1
    40    11    26    1
    41    10     6    1
    42    10    24    1
    43     6    20    1
    44    42     1    1
@<TRIPOS>MOLECULE
11996452_run_12.pdb
 42 44 0 0 0
SMALL
GASTEIGER

@<TRIPOS>ATOM
      1    O       31.3550   -0.0390    5.4370 O.3     2  LIG2       -0.3886
      2    C       27.3350    1.7760    4.8170 C.3     2  LIG2       -0.0289
      3    C       26.8320    3.1960    4.5920 C.3     2  LIG2       -0.0284
      4    C       28.1000    2.9820    5.3840 C.3     2  LIG2       -0.0319
      5    C       28.0190    0.9250    3.7070 C.3     2  LIG2       -0.0294
      6    C       29.3210    0.1770    4.1490 C.3     2  LIG2       -0.0090
      7    C       29.5240    3.2240    4.8470 C.3     2  LIG2       -0.0468
      8    C       27.1080   -0.1800    3.1180 C.3     2  LIG2       -0.0404
      9    C       30.1350    0.6850    5.3970 C.3     2  LIG2        0.0664
     10    C       28.9700   -1.3320    4.1350 C.3     2  LIG2       -0.0471
     11    C       30.5650    2.1890    5.3280 C.3     2  LIG2       -0.0237
     12    C       26.8680    3.8690    3.1990 C.3     2  LIG2       -0.0593
     13    C       25.5760    3.6060    5.3840 C.3     2  LIG2       -0.0593
     14    C       27.4590   -1.4310    3.9250 C.3     2  LIG2       -0.0498
     15    C       25.5990    0.1340    3.0590 C.3     2  LIG2       -0.0621
     16    C       29.4940    0.3600    6.7760 C.3     2  LIG2       -0.0358
     17    H       26.7990    1.1550    5.5350 H       2  LIG2        0.0312
     18    H       28.0370    3.1930    6.4530 H       2  LIG2        0.0309
     19    H       28.2840    1.5800    2.8790 H       2  LIG2        0.0310
     20    H       30.0070    0.3120    3.3070 H       2  LIG2        0.0331
     21    H       29.5410    3.2420    3.7600 H       2  LIG2        0.0269
     22    H       29.8490    4.2210    5.1480 H       2  LIG2        0.0269
     23    H       27.4240   -0.3570    2.0870 H       2  LIG2        0.0301
     24    H       29.4860   -1.8230    3.3080 H       2  LIG2        0.0269
     25    H       29.2740   -1.8650    5.0350 H       2  LIG2        0.0269
     26    H       31.4200    2.2940    4.6560 H       2  LIG2        0.0293
     27    H       30.9300    2.5050    6.3070 H       2  LIG2        0.0293
     28    H       26.8380    4.9550    3.2990 H       2  LIG2        0.0235
     29    H       26.0030    3.5710    2.6070 H       2  LIG2        0.0235
     30    H       27.7490    3.6390    2.6070 H       2  LIG2        0.0235
     31    H       25.5390    4.6850    5.5300 H       2  LIG2        0.0235
     32    H       25.5450    3.1440    6.3720 H       2  LIG2        0.0235
     33    H       24.6690    3.3060    4.8590 H       2  LIG2        0.0235
     34    H       26.9390   -1.4290    4.8840 H       2  LIG2        0.0268
     35    H       27.1850   -2.3480    3.4020 H       2  LIG2        0.0268
     36    H       25.1620    0.2470    4.0520 H       2  LIG2        0.0233
     37    H       25.0570   -0.6670    2.5550 H       2  LIG2        0.0233
     38    H       25.4120    1.0540    2.5040 H       2  LIG2        0.0233
     39    H       28.5510    0.8700    6.9490 H       2  LIG2        0.0257
     40    H       30.1490    0.6550    7.5990 H       2  LIG2        0.0257
     41    H       29.3010   -0.7030    6.9070 H       2  LIG2        0.0257
     42    H       31.8140    0.0940    4.6050 H       2  LIG2        0.2102
@<TRIPOS>BOND
     1    23     8    1
     2    38    15    1
     3    37    15    1
     4    29    12    1
     5    30    12    1
     6    19     5    1
     7    15     8    1
     8    15    36    1
     9     8     5    1
    10     8    14    1
    11    12    28    1
    12    12     3    1
    13    20     6    1
    14    24    10    1
    15    35    14    1
    16     5     6    1
    17     5     2    1
    18    21     7    1
    19    14    10    1
    20    14    34    1
    21    10     6    1
    22    10    25    1
    23     6     9    1
    24     3     2    1
    25     3    13    1
    26     3     4    1
    27    42     1    1
    28    26    11    1
    29     2     4    1
    30     2    17    1
    31     7    22    1
    32     7    11    1
    33     7     4    1
    34    33    13    1
    35    11     9    1
    36    11    27    1
    37    13    31    1
    38    13    32    1
    39     4    18    1
    40     9     1    1
    41     9    16    1
    42    16    41    1
    43    16    39    1
    44    16    40    1
@<TRIPOS>MOLECULE
11996452_run_1.pdb
 42 44 0 0 0
SMALL
GASTEIGER

@<TRIPOS>ATOM
      1    O       25.6640    4.3150    3.1050 O.3     2  LIG2       -0.3886
      2    C       27.5570    0.6330    4.7470 C.3     2  LIG2       -0.0289
      3    C       27.5600   -0.8350    4.3380 C.3     2  LIG2       -0.0284
      4    C       26.3630    0.0210    3.9980 C.3     2  LIG2       -0.0319
      5    C       28.4010    1.7230    4.0230 C.3     2  LIG2       -0.0294
      6    C       27.6360    3.0500    3.6970 C.3     2  LIG2       -0.0090
      7    C       26.0530    0.5820    2.5960 C.3     2  LIG2       -0.0468
      8    C       29.6530    2.1720    4.8150 C.3     2  LIG2       -0.0404
      9    C       26.0650    3.0500    3.6100 C.3     2  LIG2        0.0664
     10    C       28.2670    4.1370    4.6050 C.3     2  LIG2       -0.0471
     11    C       25.4670    2.0110    2.6030 C.3     2  LIG2       -0.0237
     12    C       28.4920   -1.3770    3.2290 C.3     2  LIG2       -0.0593
     13    C       27.3840   -1.8570    5.4770 C.3     2  LIG2       -0.0593
     14    C       29.1930    3.4130    5.5820 C.3     2  LIG2       -0.0498
     15    C       30.3300    1.0990    5.6930 C.3     2  LIG2       -0.0621
     16    C       25.3290    2.9750    4.9780 C.3     2  LIG2       -0.0358
     17    H       27.4060    0.8670    5.8010 H       2  LIG2        0.0312
     18    H       25.4470   -0.1950    4.5500 H       2  LIG2        0.0309
     19    H       28.7620    1.3160    3.0800 H       2  LIG2        0.0310
     20    H       27.9630    3.3070    2.6860 H       2  LIG2        0.0331
     21    H       26.9370    0.5820    1.9630 H       2  LIG2        0.0269
     22    H       25.3510   -0.0880    2.0970 H       2  LIG2        0.0269
     23    H       30.4060    2.4950    4.0930 H       2  LIG2        0.0301
     24    H       28.8480    4.8320    3.9980 H       2  LIG2        0.0269
     25    H       27.5370    4.7450    5.1380 H       2  LIG2        0.0269
     26    H       25.5810    2.3840    1.5820 H       2  LIG2        0.0293
     27    H       24.3890    1.9350    2.7600 H       2  LIG2        0.0293
     28    H       28.0990   -2.3100    2.8230 H       2  LIG2        0.0235
     29    H       29.4840   -1.5850    3.6290 H       2  LIG2        0.0235
     30    H       28.6280   -0.7080    2.3840 H       2  LIG2        0.0235
     31    H       26.9590   -2.7890    5.1050 H       2  LIG2        0.0235
     32    H       26.7210   -1.4880    6.2610 H       2  LIG2        0.0235
     33    H       28.3410   -2.0870    5.9450 H       2  LIG2        0.0235
     34    H       28.6490    3.1280    6.4850 H       2  LIG2        0.0268
     35    H       30.0290    4.0430    5.8850 H       2  LIG2        0.0268
     36    H       29.6850    0.7650    6.5060 H       2  LIG2        0.0233
     37    H       31.2450    1.4880    6.1420 H       2  LIG2        0.0233
     38    H       30.6030    0.2250    5.1020 H       2  LIG2        0.0233
     39    H       25.4850    2.0390    5.5050 H       2  LIG2        0.0257
     40    H       24.2490    3.0730    4.8550 H       2  LIG2        0.0257
     41    H       25.6310    3.7700    5.6590 H       2  LIG2        0.0257
     42    H       25.9540    4.9930    3.7200 H       2  LIG2        0.2102
@<TRIPOS>BOND
     1    26    11    1
     2    21     7    1
     3    22     7    1
     4    30    12    1
     5     7    11    1
     6     7     4    1
     7    11    27    1
     8    11     9    1
     9    20     6    1
    10    28    12    1
    11    19     5    1
    12     1     9    1
    13     1    42    1
    14    12    29    1
    15    12     3    1
    16     9     6    1
    17     9    16    1
    18     6     5    1
    19     6    10    1
    20     4     3    1
    21     4    18    1
    22     4     2    1
    23    24    10    1
    24     5     2    1
    25     5     8    1
    26    23     8    1
    27     3     2    1
    28     3    13    1
    29    10    25    1
    30    10    14    1
    31     2    17    1
    32     8    14    1
    33     8    15    1
    34    40    16    1
    35    16    39    1
    36    16    41    1
    37    38    15    1
    38    31    13    1
    39    13    33    1
    40    13    32    1
    41    14    35    1
    42    14    34    1
    43    15    37    1
    44    15    36    1
@<TRIPOS>MOLECULE
11996452_run_13.pdb
 42 44 0 0 0
SMALL
GASTEIGER

@<TRIPOS>ATOM
      1    O       30.6730    3.1430    4.9850 O.3     2  LIG2       -0.3886
      2    C       26.5340    1.5440    4.6040 C.3     2  LIG2       -0.0289
      3    C       25.2510    2.0550    3.9600 C.3     2  LIG2       -0.0284
      4    C       26.2620    3.0520    4.4750 C.3     2  LIG2       -0.0319
      5    C       27.7140    0.9360    3.7910 C.3     2  LIG2       -0.0294
      6    C       29.1360    1.4550    4.1920 C.3     2  LIG2       -0.0090
      7    C       27.2260    3.8630    3.5890 C.3     2  LIG2       -0.0468
      8    C       27.8120   -0.6060    3.8920 C.3     2  LIG2       -0.0404
      9    C       29.2890    2.8340    4.9340 C.3     2  LIG2        0.0664
     10    C       29.8590    0.2490    4.8430 C.3     2  LIG2       -0.0471
     11    C       28.6360    4.0490    4.1940 C.3     2  LIG2       -0.0237
     12    C       24.9780    1.9090    2.4440 C.3     2  LIG2       -0.0593
     13    C       23.9610    1.8820    4.7850 C.3     2  LIG2       -0.0593
     14    C       28.8120   -0.8500    5.0240 C.3     2  LIG2       -0.0498
     15    C       26.4810   -1.3700    4.0480 C.3     2  LIG2       -0.0621
     16    C       28.8820    2.8230    6.4350 C.3     2  LIG2       -0.0358
     17    H       26.4650    1.1180    5.6050 H       2  LIG2        0.0312
     18    H       25.9710    3.6140    5.3640 H       2  LIG2        0.0309
     19    H       27.5680    1.1670    2.7380 H       2  LIG2        0.0310
     20    H       29.6460    1.6040    3.2360 H       2  LIG2        0.0331
     21    H       27.3370    3.4130    2.6050 H       2  LIG2        0.0269
     22    H       26.7890    4.8450    3.4000 H       2  LIG2        0.0269
     23    H       28.2680   -0.9720    2.9700 H       2  LIG2        0.0301
     24    H       30.6510   -0.1070    4.1820 H       2  LIG2        0.0269
     25    H       30.3460    0.4830    5.7900 H       2  LIG2        0.0269
     26    H       29.2760    4.3600    3.3640 H       2  LIG2        0.0293
     27    H       28.6050    4.9080    4.8670 H       2  LIG2        0.0293
     28    H       24.2360    2.6400    2.1180 H       2  LIG2        0.0235
     29    H       24.5830    0.9190    2.2190 H       2  LIG2        0.0235
     30    H       25.8490    2.0520    1.8110 H       2  LIG2        0.0235
     31    H       23.2130    2.6230    4.5030 H       2  LIG2        0.0235
     32    H       24.1410    1.9920    5.8550 H       2  LIG2        0.0235
     33    H       23.5290    0.8930    4.6290 H       2  LIG2        0.0235
     34    H       28.3240   -0.7560    5.9960 H       2  LIG2        0.0268
     35    H       29.2580   -1.8430    4.9720 H       2  LIG2        0.0268
     36    H       25.9790   -1.1370    4.9880 H       2  LIG2        0.0233
     37    H       26.6480   -2.4470    4.0270 H       2  LIG2        0.0233
     38    H       25.7950   -1.1300    3.2350 H       2  LIG2        0.0233
     39    H       27.8240    2.6410    6.5980 H       2  LIG2        0.0257
     40    H       29.0980    3.7800    6.9140 H       2  LIG2        0.0257
     41    H       29.4190    2.0680    7.0080 H       2  LIG2        0.0257
     42    H       30.9810    3.3050    4.0900 H       2  LIG2        0.2102
@<TRIPOS>BOND
     1    30    12    1
     2    28    12    1
     3    29    12    1
     4    12     3    1
     5    21     7    1
     6    19     5    1
     7    23     8    1
     8    38    15    1
     9    20     6    1
    10    26    11    1
    11    22     7    1
    12     7    11    1
    13     7     4    1
    14     5     8    1
    15     5     6    1
    16     5     2    1
    17     8    15    1
    18     8    14    1
    19     3     4    1
    20     3     2    1
    21     3    13    1
    22    37    15    1
    23    15    36    1
    24    42     1    1
    25    24    10    1
    26     6    10    1
    27     6     9    1
    28    11    27    1
    29    11     9    1
    30     4     2    1
    31     4    18    1
    32    31    13    1
    33     2    17    1
    34    33    13    1
    35    13    32    1
    36    10    14    1
    37    10    25    1
    38     9     1    1
    39     9    16    1
    40    35    14    1
    41    14    34    1
    42    16    39    1
    43    16    40    1
    44    16    41    1
@<TRIPOS>MOLECULE
11996452_run_14.pdb
 42 44 0 0 0
SMALL
GASTEIGER

@<TRIPOS>ATOM
      1    O       27.1820   -2.4550    3.6050 O.3     2  LIG2       -0.3886
      2    C       28.3820    1.5270    5.1980 C.3     2  LIG2       -0.0289
      3    C       29.7190    2.2050    5.4730 C.3     2  LIG2       -0.0284
      4    C       29.6270    0.7000    5.5530 C.3     2  LIG2       -0.0319
      5    C       27.7770    1.3750    3.7720 C.3     2  LIG2       -0.0294
      6    C       27.2060   -0.0440    3.4380 C.3     2  LIG2       -0.0090
      7    C       30.1520   -0.2720    4.4790 C.3     2  LIG2       -0.0468
      8    C       26.6100    2.3500    3.4800 C.3     2  LIG2       -0.0404
      9    C       27.7000   -1.3000    4.2470 C.3     2  LIG2        0.0664
     10    C       25.6700    0.1330    3.3270 C.3     2  LIG2       -0.0471
     11    C       29.2520   -1.5060    4.2490 C.3     2  LIG2       -0.0237
     12    C       30.5350    2.8940    4.3540 C.3     2  LIG2       -0.0593
     13    C       29.8320    2.9680    6.8060 C.3     2  LIG2       -0.0593
     14    C       25.3520    1.5470    3.8130 C.3     2  LIG2       -0.0498
     15    C       26.6810    3.7290    4.1680 C.3     2  LIG2       -0.0621
     16    C       27.1290   -1.4210    5.6890 C.3     2  LIG2       -0.0358
     17    H       27.6090    1.6010    5.9640 H       2  LIG2        0.0312
     18    H       29.7080    0.2680    6.5520 H       2  LIG2        0.0309
     19    H       28.5520    1.5950    3.0390 H       2  LIG2        0.0310
     20    H       27.5400   -0.2340    2.4140 H       2  LIG2        0.0331
     21    H       30.2900    0.2290    3.5230 H       2  LIG2        0.0269
     22    H       31.1500   -0.6080    4.7650 H       2  LIG2        0.0269
     23    H       26.5990    2.5450    2.4060 H       2  LIG2        0.0301
     24    H       25.3610    0.0250    2.2860 H       2  LIG2        0.0269
     25    H       25.0990   -0.6090    3.8850 H       2  LIG2        0.0269
     26    H       29.5660   -1.9290    3.2910 H       2  LIG2        0.0293
     27    H       29.5150   -2.2610    4.9930 H       2  LIG2        0.0293
     28    H       31.5850    2.9720    4.6400 H       2  LIG2        0.0235
     29    H       30.1670    3.9050    4.1770 H       2  LIG2        0.0235
     30    H       30.5150    2.3800    3.3960 H       2  LIG2        0.0235
     31    H       30.8690    3.0310    7.1340 H       2  LIG2        0.0235
     32    H       29.2670    2.4860    7.6050 H       2  LIG2        0.0235
     33    H       29.4490    3.9840    6.7070 H       2  LIG2        0.0235
     34    H       25.1660    1.5490    4.8880 H       2  LIG2        0.0268
     35    H       24.4660    1.9500    3.3230 H       2  LIG2        0.0268
     36    H       26.6150    3.6530    5.2540 H       2  LIG2        0.0233
     37    H       25.8630    4.3690    3.8360 H       2  LIG2        0.0233
     38    H       27.6140    4.2400    3.9250 H       2  LIG2        0.0233
     39    H       27.4580   -0.6300    6.3560 H       2  LIG2        0.0257
     40    H       27.4340   -2.3570    6.1610 H       2  LIG2        0.0257
     41    H       26.0400   -1.4110    5.7090 H       2  LIG2        0.0257
     42    H       27.3280   -2.3670    2.6610 H       2  LIG2        0.2102
@<TRIPOS>BOND
     1    24    10    1
     2    23     8    1
     3    20     6    1
     4    42     1    1
     5    19     5    1
     6    26    11    1
     7    35    14    1
     8    10     6    1
     9    10    14    1
    10    10    25    1
    11    30    12    1
    12     6     5    1
    13     6     9    1
    14     8     5    1
    15     8    14    1
    16     8    15    1
    17    21     7    1
    18     1     9    1
    19     5     2    1
    20    14    34    1
    21    37    15    1
    22    38    15    1
    23    15    36    1
    24    29    12    1
    25     9    11    1
    26     9    16    1
    27    11     7    1
    28    11    27    1
    29    12    28    1
    30    12     3    1
    31     7    22    1
    32     7     4    1
    33     2     3    1
    34     2     4    1
    35     2    17    1
    36     3     4    1
    37     3    13    1
    38     4    18    1
    39    16    41    1
    40    16    40    1
    41    16    39    1
    42    33    13    1
    43    13    31    1
    44    13    32    1
@<TRIPOS>MOLECULE
11996452_run_12.pdb
 42 44 0 0 0
SMALL
GASTEIGER

@<TRIPOS>ATOM
      1    O       26.4700    0.1430    2.3070 O.3     2  LIG2       -0.3886
      2    C       29.0180    0.2550    5.9590 C.3     2  LIG2       -0.0289
      3    C       30.0190   -0.7060    6.5870 C.3     2  LIG2       -0.0284
      4    C       28.8870   -1.2640    5.7580 C.3     2  LIG2       -0.0319
      5    C       29.3430    1.1370    4.7180 C.3     2  LIG2       -0.0294
      6    C       28.2420    1.1530    3.6050 C.3     2  LIG2       -0.0090
      7    C       29.0300   -1.7940    4.3180 C.3     2  LIG2       -0.0468
      8    C       29.5820    2.6290    5.0590 C.3     2  LIG2       -0.0404
      9    C       27.2020   -0.0250    3.5120 C.3     2  LIG2        0.0664
     10    C       27.6490    2.5840    3.6150 C.3     2  LIG2       -0.0471
     11    C       27.8390   -1.4510    3.3970 C.3     2  LIG2       -0.0237
     12    C       31.4840   -0.8000    6.1000 C.3     2  LIG2       -0.0593
     13    C       29.9200   -0.8890    8.1140 C.3     2  LIG2       -0.0593
     14    C       28.2200    3.2910    4.8440 C.3     2  LIG2       -0.0498
     15    C       30.2210    2.9250    6.4310 C.3     2  LIG2       -0.0621
     16    C       26.0890   -0.0070    4.5970 C.3     2  LIG2       -0.0358
     17    H       28.2860    0.7260    6.6150 H       2  LIG2        0.0312
     18    H       28.1140   -1.8050    6.3050 H       2  LIG2        0.0309
     19    H       30.2620    0.7740    4.2630 H       2  LIG2        0.0310
     20    H       28.8050    1.0900    2.6700 H       2  LIG2        0.0331
     21    H       29.9390   -1.4270    3.8470 H       2  LIG2        0.0269
     22    H       29.1520   -2.8780    4.3530 H       2  LIG2        0.0269
     23    H       30.2650    3.0360    4.3100 H       2  LIG2        0.0301
     24    H       27.9550    3.1160    2.7120 H       2  LIG2        0.0269
     25    H       26.5600    2.6110    3.6210 H       2  LIG2        0.0269
     26    H       28.1960   -1.6100    2.3770 H       2  LIG2        0.0293
     27    H       27.0640   -2.2050    3.5480 H       2  LIG2        0.0293
     28    H       31.9190   -1.7610    6.3810 H       2  LIG2        0.0235
     29    H       32.0920   -0.0190    6.5570 H       2  LIG2        0.0235
     30    H       31.6110   -0.7090    5.0240 H       2  LIG2        0.0235
     31    H       30.3160   -1.8570    8.4200 H       2  LIG2        0.0235
     32    H       28.8890   -0.8330    8.4670 H       2  LIG2        0.0235
     33    H       30.4830   -0.1150    8.6360 H       2  LIG2        0.0235
     34    H       27.5750    3.1340    5.7090 H       2  LIG2        0.0268
     35    H       28.3060    4.3660    4.6860 H       2  LIG2        0.0268
     36    H       29.5760    2.6300    7.2590 H       2  LIG2        0.0233
     37    H       30.4240    3.9910    6.5410 H       2  LIG2        0.0233
     38    H       31.1700    2.3990    6.5430 H       2  LIG2        0.0233
     39    H       26.4600   -0.1670    5.6050 H       2  LIG2        0.0257
     40    H       25.3490   -0.7910    4.4230 H       2  LIG2        0.0257
     41    H       25.5370    0.9320    4.6150 H       2  LIG2        0.0257
     42    H       25.9560   -0.6520    2.1520 H       2  LIG2        0.2102
@<TRIPOS>BOND
     1    42     1    1
     2     1     9    1
     3    26    11    1
     4    20     6    1
     5    24    10    1
     6    11     9    1
     7    11    27    1
     8    11     7    1
     9     9     6    1
    10     9    16    1
    11     6    10    1
    12     6     5    1
    13    10    25    1
    14    10    14    1
    15    21     7    1
    16    19     5    1
    17    23     8    1
    18     7    22    1
    19     7     4    1
    20    40    16    1
    21    16    41    1
    22    16    39    1
    23    35    14    1
    24     5     8    1
    25     5     2    1
    26    14     8    1
    27    14    34    1
    28    30    12    1
    29     8    15    1
    30     4     2    1
    31     4    18    1
    32     4     3    1
    33     2     3    1
    34     2    17    1
    35    12    28    1
    36    12    29    1
    37    12     3    1
    38    15    37    1
    39    15    38    1
    40    15    36    1
    41     3    13    1
    42    13    31    1
    43    13    32    1
    44    13    33    1
@<TRIPOS>MOLECULE
11996452_run_11.pdb
 42 44 0 0 0
SMALL
GASTEIGER

@<TRIPOS>ATOM
      1    O       22.8490    3.0780    3.9500 O.3     2  LIG2       -0.3886
      2    C       27.2040    3.4820    4.7910 C.3     2  LIG2       -0.0289
      3    C       28.3840    2.5180    4.7770 C.3     2  LIG2       -0.0284
      4    C       27.0040    1.9850    5.0780 C.3     2  LIG2       -0.0319
      5    C       26.5710    4.0770    3.4990 C.3     2  LIG2       -0.0294
      6    C       25.0060    4.0470    3.4500 C.3     2  LIG2       -0.0090
      7    C       26.1320    1.1930    4.0840 C.3     2  LIG2       -0.0468
      8    C       26.9470    5.5570    3.2440 C.3     2  LIG2       -0.0404
      9    C       24.2110    3.0270    4.3470 C.3     2  LIG2        0.0664
     10    C       24.5510    5.5260    3.5340 C.3     2  LIG2       -0.0471
     11    C       24.6260    1.5290    4.1570 C.3     2  LIG2       -0.0237
     12    C       29.1180    2.1370    3.4700 C.3     2  LIG2       -0.0593
     13    C       29.3630    2.6250    5.9620 C.3     2  LIG2       -0.0593
     14    C       25.7940    6.3530    3.8590 C.3     2  LIG2       -0.0498
     15    C       28.3460    6.0010    3.7170 C.3     2  LIG2       -0.0621
     16    C       24.1450    3.3920    5.8570 C.3     2  LIG2       -0.0358
     17    H       27.1120    4.1590    5.6410 H       2  LIG2        0.0312
     18    H       26.8280    1.6630    6.1050 H       2  LIG2        0.0309
     19    H       26.9350    3.5140    2.6420 H       2  LIG2        0.0310
     20    H       24.7760    3.7420    2.4250 H       2  LIG2        0.0331
     21    H       26.4620    1.3410    3.0590 H       2  LIG2        0.0269
     22    H       26.2670    0.1270    4.2700 H       2  LIG2        0.0269
     23    H       26.9210    5.7260    2.1650 H       2  LIG2        0.0301
     24    H       24.1430    5.8410    2.5720 H       2  LIG2        0.0269
     25    H       23.7620    5.7040    4.2640 H       2  LIG2        0.0269
     26    H       24.1900    1.1430    3.2330 H       2  LIG2        0.0293
     27    H       24.1830    0.9290    4.9540 H       2  LIG2        0.0293
     28    H       29.6470    1.1910    3.5910 H       2  LIG2        0.0235
     29    H       29.8560    2.8950    3.2090 H       2  LIG2        0.0235
     30    H       28.4700    2.0180    2.6050 H       2  LIG2        0.0235
     31    H       29.8810    1.6820    6.1290 H       2  LIG2        0.0235
     32    H       28.8540    2.8850    6.8920 H       2  LIG2        0.0235
     33    H       30.1140    3.3940    5.7790 H       2  LIG2        0.0235
     34    H       25.9220    6.4430    4.9390 H       2  LIG2        0.0268
     35    H       25.7260    7.3610    3.4480 H       2  LIG2        0.0268
     36    H       28.4510    5.9500    4.8010 H       2  LIG2        0.0233
     37    H       28.5470    7.0300    3.4190 H       2  LIG2        0.0233
     38    H       29.1250    5.3760    3.2770 H       2  LIG2        0.0233
     39    H       25.1100    3.3630    6.3550 H       2  LIG2        0.0257
     40    H       23.5040    2.6990    6.4060 H       2  LIG2        0.0257
     41    H       23.7360    4.3860    6.0290 H       2  LIG2        0.0257
     42    H       22.3700    2.3930    4.4210 H       2  LIG2        0.2102
@<TRIPOS>BOND
     1    23     8    1
     2    20     6    1
     3    24    10    1
     4    30    12    1
     5    19     5    1
     6    21     7    1
     7    29    12    1
     8    26    11    1
     9     8     5    1
    10     8    15    1
    11     8    14    1
    12    38    15    1
    13    37    15    1
    14    35    14    1
    15     6     5    1
    16     6    10    1
    17     6     9    1
    18    12    28    1
    19    12     3    1
    20     5     2    1
    21    10    14    1
    22    10    25    1
    23    15    36    1
    24    14    34    1
    25     1     9    1
    26     1    42    1
    27     7    11    1
    28     7    22    1
    29     7     4    1
    30    11     9    1
    31    11    27    1
    32     9    16    1
    33     3     2    1
    34     3     4    1
    35     3    13    1
    36     2     4    1
    37     2    17    1
    38     4    18    1
    39    33    13    1
    40    16    41    1
    41    16    39    1
    42    16    40    1
    43    13    31    1
    44    13    32    1
@<TRIPOS>MOLECULE
11996452_run_12.pdb
 42 44 0 0 0
SMALL
GASTEIGER

@<TRIPOS>ATOM
      1    O       24.2470    1.6900    2.2670 O.3     2  LIG2       -0.3886
      2    C       27.8120    1.2960    4.9080 C.3     2  LIG2       -0.0289
      3    C       28.9400    0.2790    5.0270 C.3     2  LIG2       -0.0284
      4    C       27.5940   -0.1740    4.5140 C.3     2  LIG2       -0.0319
      5    C       27.7500    2.3760    3.7880 C.3     2  LIG2       -0.0294
      6    C       26.3560    2.5340    3.0920 C.3     2  LIG2       -0.0090
      7    C       27.2680   -0.4620    3.0360 C.3     2  LIG2       -0.0468
      8    C       28.1140    3.8000    4.2740 C.3     2  LIG2       -0.0404
      9    C       25.3160    1.3540    3.1390 C.3     2  LIG2        0.0664
     10    C       25.8250    3.9260    3.5190 C.3     2  LIG2       -0.0471
     11    C       25.8550   -0.0130    2.6020 C.3     2  LIG2       -0.0237
     12    C       30.1770    0.3110    4.0980 C.3     2  LIG2       -0.0593
     13    C       29.3210   -0.1490    6.4570 C.3     2  LIG2       -0.0593
     14    C       26.7670    4.4450    4.6050 C.3     2  LIG2       -0.0498
     15    C       29.1560    3.8930    5.4070 C.3     2  LIG2       -0.0621
     16    C       24.5990    1.1630    4.5060 C.3     2  LIG2       -0.0358
     17    H       27.3320    1.6330    5.8270 H       2  LIG2        0.0312
     18    H       27.0200   -0.8200    5.1810 H       2  LIG2        0.0309
     19    H       28.4720    2.1190    3.0160 H       2  LIG2        0.0310
     20    H       26.5970    2.6400    2.0310 H       2  LIG2        0.0331
     21    H       27.9910    0.0050    2.3710 H       2  LIG2        0.0269
     22    H       27.3720   -1.5330    2.8550 H       2  LIG2        0.0269
     23    H       28.5360    4.3440    3.4250 H       2  LIG2        0.0301
     24    H       25.8430    4.6050    2.6650 H       2  LIG2        0.0269
     25    H       24.7930    3.9170    3.8700 H       2  LIG2        0.0269
     26    H       25.8720    0.0040    1.5090 H       2  LIG2        0.0293
     27    H       25.1520   -0.8070    2.8630 H       2  LIG2        0.0293
     28    H       30.6580   -0.6670    4.0700 H       2  LIG2        0.0235
     29    H       30.9120    1.0280    4.4630 H       2  LIG2        0.0235
     30    H       29.9620    0.5780    3.0670 H       2  LIG2        0.0235
     31    H       29.7730   -1.1400    6.4630 H       2  LIG2        0.0235
     32    H       28.4540   -0.1830    7.1200 H       2  LIG2        0.0235
     33    H       30.0350    0.5490    6.8960 H       2  LIG2        0.0235
     34    H       26.4220    4.1310    5.5920 H       2  LIG2        0.0268
     35    H       26.8210    5.5340    4.6050 H       2  LIG2        0.0268
     36    H       28.7970    3.4490    6.3350 H       2  LIG2        0.0233
     37    H       29.4050    4.9330    5.6190 H       2  LIG2        0.0233
     38    H       30.0820    3.3860    5.1300 H       2  LIG2        0.0233
     39    H       25.2640    0.8550    5.3070 H       2  LIG2        0.0257
     40    H       23.8260    0.3930    4.4460 H       2  LIG2        0.0257
     41    H       24.1000    2.0690    4.8470 H       2  LIG2        0.0257
     42    H       23.6380    0.9490    2.2350 H       2  LIG2        0.2102
@<TRIPOS>BOND
     1    26    11    1
     2    20     6    1
     3    42     1    1
     4     1     9    1
     5    21     7    1
     6    11    27    1
     7    11     7    1
     8    11     9    1
     9    24    10    1
    10    22     7    1
    11    19     5    1
    12     7     4    1
    13    30    12    1
    14     6     9    1
    15     6    10    1
    16     6     5    1
    17     9    16    1
    18    23     8    1
    19    10    25    1
    20    10    14    1
    21     5     8    1
    22     5     2    1
    23    28    12    1
    24    12    29    1
    25    12     3    1
    26     8    14    1
    27     8    15    1
    28    40    16    1
    29    16    41    1
    30    16    39    1
    31     4     2    1
    32     4     3    1
    33     4    18    1
    34    35    14    1
    35    14    34    1
    36     2     3    1
    37     2    17    1
    38     3    13    1
    39    38    15    1
    40    15    37    1
    41    15    36    1
    42    13    31    1
    43    13    33    1
    44    13    32    1
@<TRIPOS>MOLECULE
11996452_run_4.pdb
 42 44 0 0 0
SMALL
GASTEIGER

@<TRIPOS>ATOM
      1    O       28.4280   -2.1810    4.4800 O.3     2  LIG2       -0.3886
      2    C       27.4730    2.1400    3.9790 C.3     2  LIG2       -0.0289
      3    C       26.1810    2.9460    3.9370 C.3     2  LIG2       -0.0284
      4    C       26.1640    1.5070    3.4810 C.3     2  LIG2       -0.0319
      5    C       28.0990    1.5970    5.2970 C.3     2  LIG2       -0.0294
      6    C       28.5770    0.1070    5.2430 C.3     2  LIG2       -0.0090
      7    C       25.5990    0.3310    4.3000 C.3     2  LIG2       -0.0468
      8    C       29.3390    2.3940    5.7740 C.3     2  LIG2       -0.0404
      9    C       27.9770   -0.8720    4.1670 C.3     2  LIG2        0.0664
     10    C       30.1240    0.1550    5.3310 C.3     2  LIG2       -0.0471
     11    C       26.4150   -0.9750    4.1780 C.3     2  LIG2       -0.0237
     12    C       25.4420    3.3810    5.2250 C.3     2  LIG2       -0.0593
     13    C       26.0890    4.0250    2.8420 C.3     2  LIG2       -0.0593
     14    C       30.5290    1.6230    5.2010 C.3     2  LIG2       -0.0498
     15    C       29.3480    3.9030    5.4550 C.3     2  LIG2       -0.0621
     16    C       28.5030   -0.6620    2.7190 C.3     2  LIG2       -0.0358
     17    H       28.2300    2.3550    3.2250 H       2  LIG2        0.0312
     18    H       26.0290    1.3460    2.4100 H       2  LIG2        0.0309
     19    H       27.3600    1.6730    6.0920 H       2  LIG2        0.0310
     20    H       28.2560   -0.3130    6.2000 H       2  LIG2        0.0331
     21    H       25.5190    0.5830    5.3550 H       2  LIG2        0.0269
     22    H       24.5730    0.1400    3.9810 H       2  LIG2        0.0269
     23    H       29.3890    2.3110    6.8620 H       2  LIG2        0.0301
     24    H       30.4500   -0.2300    6.2990 H       2  LIG2        0.0269
     25    H       30.6280   -0.4570    4.5830 H       2  LIG2        0.0269
     26    H       26.0950   -1.6040    5.0120 H       2  LIG2        0.0293
     27    H       26.0810   -1.5000    3.2810 H       2  LIG2        0.0293
     28    H       24.3940    3.5940    5.0100 H       2  LIG2        0.0235
     29    H       25.8840    4.2900    5.6320 H       2  LIG2        0.0235
     30    H       25.4490    2.6430    6.0230 H       2  LIG2        0.0235
     31    H       25.0510    4.2330    2.5820 H       2  LIG2        0.0235
     32    H       26.5990    3.7250    1.9260 H       2  LIG2        0.0235
     33    H       26.5450    4.9580    3.1750 H       2  LIG2        0.0235
     34    H       30.6880    1.8830    4.1530 H       2  LIG2        0.0268
     35    H       31.4530    1.8340    5.7390 H       2  LIG2        0.0268
     36    H       29.3830    4.0970    4.3830 H       2  LIG2        0.0233
     37    H       30.2170    4.3870    5.9020 H       2  LIG2        0.0233
     38    H       28.4600    4.3930    5.8550 H       2  LIG2        0.0233
     39    H       28.2150    0.2900    2.2840 H       2  LIG2        0.0257
     40    H       28.1220   -1.4290    2.0410 H       2  LIG2        0.0257
     41    H       29.5890   -0.7160    2.6580 H       2  LIG2        0.0257
     42    H       28.0550   -2.4360    5.3270 H       2  LIG2        0.2102
@<TRIPOS>BOND
     1    32    13    1
     2    40    16    1
     3    39    16    1
     4    18     4    1
     5    31    13    1
     6    41    16    1
     7    16     9    1
     8    13    33    1
     9    13     3    1
    10    17     2    1
    11    27    11    1
    12     4     3    1
    13     4     2    1
    14     4     7    1
    15     3     2    1
    16     3    12    1
    17     2     5    1
    18    22     7    1
    19    34    14    1
    20     9    11    1
    21     9     1    1
    22     9     6    1
    23    11     7    1
    24    11    26    1
    25     7    21    1
    26    36    15    1
    27     1    42    1
    28    25    10    1
    29    28    12    1
    30    14    10    1
    31    14    35    1
    32    14     8    1
    33    12    29    1
    34    12    30    1
    35     6     5    1
    36     6    10    1
    37     6    20    1
    38     5     8    1
    39     5    19    1
    40    10    24    1
    41    15     8    1
    42    15    38    1
    43    15    37    1
    44     8    23    1
