@<TRIPOS>MOLECULE
5281519_run_20.pdb
 39 39 0 0 0
SMALL
GASTEIGER

@<TRIPOS>ATOM
      1    C       27.3800    3.4630    3.7700 C.3     2  LIG2       -0.0275
      2    C       26.2000    2.4660    3.7750 C.2     2  LIG2       -0.0668
      3    C       28.2690    3.5220    5.0500 C.3     2  LIG2       -0.0283
      4    C       26.4200    1.2100    2.9040 C.3     2  LIG2       -0.0130
      5    C       29.2010    2.3300    5.2310 C.2     2  LIG2       -0.0762
      6    C       29.0480   -0.9540    4.8620 C.3     2  LIG2       -0.0286
      7    C       29.4810   -0.0800    6.0780 C.3     2  LIG2       -0.0308
      8    C       27.6860   -0.5580    4.2860 C.2     2  LIG2       -0.0759
      9    C       25.0550    2.7040    4.4780 C.2     2  LIG2       -0.0762
     10    C       27.6270    0.3970    3.3310 C.2     2  LIG2       -0.0810
     11    C       28.8710    1.3200    6.0650 C.2     2  LIG2       -0.0847
     12    C       30.4270    2.3200    4.3250 C.3     2  LIG2       -0.0438
     13    C       26.4830   -1.1210    5.0290 C.3     2  LIG2       -0.0438
     14    C       24.8300    3.9410    5.3460 C.3     2  LIG2       -0.0438
     15    C       23.8310    1.7910    4.4840 C.3     2  LIG2       -0.0438
     16    H       27.9990    3.2870    2.8890 H       2  LIG2        0.0313
     17    H       26.9690    4.4560    3.5920 H       2  LIG2        0.0313
     18    H       28.8810    4.4250    5.0280 H       2  LIG2        0.0313
     19    H       27.6380    3.6270    5.9330 H       2  LIG2        0.0313
     20    H       25.5640    0.5440    2.8990 H       2  LIG2        0.0352
     21    H       26.5420    1.5120    1.8630 H       2  LIG2        0.0352
     22    H       29.7970   -0.8400    4.0770 H       2  LIG2        0.0313
     23    H       29.0600   -2.0160    5.1140 H       2  LIG2        0.0313
     24    H       29.1520   -0.5580    7.0020 H       2  LIG2        0.0310
     25    H       30.5680   -0.0260    6.1510 H       2  LIG2        0.0310
     26    H       28.5550    0.7540    2.9100 H       2  LIG2        0.0575
     27    H       27.9630    1.4110    6.6430 H       2  LIG2        0.0572
     28    H       30.1450    2.4580    3.2810 H       2  LIG2        0.0274
     29    H       30.9930    1.3930    4.3910 H       2  LIG2        0.0274
     30    H       31.0990    3.1320    4.6050 H       2  LIG2        0.0274
     31    H       26.3820   -2.1850    4.8170 H       2  LIG2        0.0274
     32    H       25.5480   -0.6410    4.7500 H       2  LIG2        0.0274
     33    H       26.6050   -0.9950    6.1050 H       2  LIG2        0.0274
     34    H       23.9570    4.4930    4.9980 H       2  LIG2        0.0274
     35    H       25.6600    4.6430    5.3550 H       2  LIG2        0.0274
     36    H       24.6550    3.6410    6.3790 H       2  LIG2        0.0274
     37    H       22.9120    2.3760    4.5360 H       2  LIG2        0.0274
     38    H       23.8580    1.1430    5.3600 H       2  LIG2        0.0274
     39    H       23.7340    1.1650    3.5990 H       2  LIG2        0.0274
@<TRIPOS>BOND
     1    21     4    1
     2    16     1    1
     3    20     4    1
     4     4    10    1
     5     4     2    1
     6    26    10    1
     7    28    12    1
     8    10     8    2
     9    17     1    1
    10    39    15    1
    11     1     2    1
    12     1     3    1
    13     2     9    2
    14    22     6    1
    15     8     6    1
    16     8    13    1
    17    12    29    1
    18    12    30    1
    19    12     5    1
    20     9    15    1
    21     9    14    1
    22    15    37    1
    23    15    38    1
    24    32    13    1
    25    31    13    1
    26     6    23    1
    27     6     7    1
    28    34    14    1
    29    18     3    1
    30    13    33    1
    31     3     5    1
    32     3    19    1
    33     5    11    2
    34    14    35    1
    35    14    36    1
    36    11     7    1
    37    11    27    1
    38     7    25    1
    39     7    24    1
@<TRIPOS>MOLECULE
5281519_run_20.pdb
 39 39 0 0 0
SMALL
GASTEIGER

@<TRIPOS>ATOM
      1    C       25.9830    0.9020    4.6050 C.3     2  LIG2       -0.0275
      2    C       26.9010    2.1410    4.6920 C.2     2  LIG2       -0.0668
      3    C       26.2800   -0.1280    3.4730 C.3     2  LIG2       -0.0283
      4    C       27.9080    2.1100    5.8620 C.3     2  LIG2       -0.0130
      5    C       27.5160   -0.9890    3.7060 C.2     2  LIG2       -0.0762
      6    C       30.5960   -0.5640    4.8390 C.3     2  LIG2       -0.0286
      7    C       30.0710   -1.1930    3.5120 C.3     2  LIG2       -0.0308
      8    C       30.0140    0.8230    5.1240 C.2     2  LIG2       -0.0759
      9    C       26.8000    3.1790    3.8120 C.2     2  LIG2       -0.0762
     10    C       28.8490    0.9230    5.8030 C.2     2  LIG2       -0.0810
     11    C       28.6880   -0.6850    3.1070 C.2     2  LIG2       -0.0847
     12    C       27.3490   -2.1000    4.7360 C.3     2  LIG2       -0.0438
     13    C       30.6950    1.9710    4.3920 C.3     2  LIG2       -0.0438
     14    C       25.8110    3.2170    2.6480 C.3     2  LIG2       -0.0438
     15    C       27.6360    4.4550    3.8730 C.3     2  LIG2       -0.0438
     16    H       25.9570    0.4010    5.5730 H       2  LIG2        0.0313
     17    H       24.9600    1.2600    4.4830 H       2  LIG2        0.0313
     18    H       25.4260   -0.7960    3.3520 H       2  LIG2        0.0313
     19    H       26.3730    0.3890    2.5180 H       2  LIG2        0.0313
     20    H       28.5170    3.0060    5.9200 H       2  LIG2        0.0352
     21    H       27.3610    2.0860    6.8050 H       2  LIG2        0.0352
     22    H       30.3200   -1.2260    5.6610 H       2  LIG2        0.0313
     23    H       31.6860   -0.5300    4.8550 H       2  LIG2        0.0313
     24    H       30.7500   -0.9380    2.6980 H       2  LIG2        0.0310
     25    H       30.0800   -2.2820    3.5670 H       2  LIG2        0.0310
     26    H       28.4360    0.0260    6.2390 H       2  LIG2        0.0575
     27    H       28.7080    0.1430    2.4130 H       2  LIG2        0.0572
     28    H       26.9440   -1.7120    5.6710 H       2  LIG2        0.0274
     29    H       28.2850   -2.6040    4.9700 H       2  LIG2        0.0274
     30    H       26.6600   -2.8550    4.3550 H       2  LIG2        0.0274
     31    H       31.6690    2.1700    4.8410 H       2  LIG2        0.0274
     32    H       30.1240    2.8950    4.4240 H       2  LIG2        0.0274
     33    H       30.8470    1.7190    3.3420 H       2  LIG2        0.0274
     34    H       25.1550    4.0830    2.7380 H       2  LIG2        0.0274
     35    H       25.1670    2.3440    2.5760 H       2  LIG2        0.0274
     36    H       26.3520    3.2940    1.7060 H       2  LIG2        0.0274
     37    H       27.0460    5.3200    3.5630 H       2  LIG2        0.0274
     38    H       28.4820    4.3750    3.1910 H       2  LIG2        0.0274
     39    H       28.0170    4.6970    4.8630 H       2  LIG2        0.0274
@<TRIPOS>BOND
     1    36    14    1
     2    27    11    1
     3    19     3    1
     4    35    14    1
     5    14    34    1
     6    14     9    1
     7    24     7    1
     8    11     7    1
     9    11     5    2
    10    38    15    1
    11    33    13    1
    12    18     3    1
    13     3     5    1
    14     3     1    1
    15     7    25    1
    16     7     6    1
    17    37    15    1
    18     5    12    1
    19     9    15    1
    20     9     2    2
    21    15    39    1
    22    30    12    1
    23    13    32    1
    24    13    31    1
    25    13     8    1
    26    17     1    1
    27     1     2    1
    28     1    16    1
    29     2     4    1
    30    12    29    1
    31    12    28    1
    32     6    23    1
    33     6     8    1
    34     6    22    1
    35     8    10    2
    36    10     4    1
    37    10    26    1
    38     4    20    1
    39     4    21    1
@<TRIPOS>MOLECULE
5281519_run_23.pdb
 39 39 0 0 0
SMALL
GASTEIGER

@<TRIPOS>ATOM
      1    C       26.8900    0.8950    3.1630 C.3     2  LIG2       -0.0275
      2    C       27.9340   -0.2030    3.4580 C.2     2  LIG2       -0.0668
      3    C       26.4100    1.7660    4.3640 C.3     2  LIG2       -0.0283
      4    C       29.3610    0.1220    2.9650 C.3     2  LIG2       -0.0130
      5    C       27.4310    2.7870    4.8550 C.2     2  LIG2       -0.0762
      6    C       30.6910    2.8930    5.4090 C.3     2  LIG2       -0.0286
      7    C       29.4840    3.2470    6.3310 C.3     2  LIG2       -0.0308
      8    C       30.5750    1.5100    4.7640 C.2     2  LIG2       -0.0759
      9    C       27.6000   -1.3690    4.0840 C.2     2  LIG2       -0.0762
     10    C       29.9290    1.3840    3.5830 C.2     2  LIG2       -0.0810
     11    C       28.1930    2.5300    5.9400 C.2     2  LIG2       -0.0847
     12    C       27.5960    4.0170    3.9700 C.3     2  LIG2       -0.0438
     13    C       31.0020    0.3470    5.6500 C.3     2  LIG2       -0.0438
     14    C       26.1930   -1.6970    4.5800 C.3     2  LIG2       -0.0438
     15    C       28.5680   -2.5180    4.3580 C.3     2  LIG2       -0.0438
     16    H       27.2530    1.5340    2.3560 H       2  LIG2        0.0313
     17    H       26.0190    0.4100    2.7230 H       2  LIG2        0.0313
     18    H       25.5040    2.3070    4.0870 H       2  LIG2        0.0313
     19    H       26.1150    1.1220    5.1930 H       2  LIG2        0.0313
     20    H       30.0670   -0.6800    3.1550 H       2  LIG2        0.0352
     21    H       29.3490    0.2280    1.8800 H       2  LIG2        0.0352
     22    H       30.7410    3.6380    4.6130 H       2  LIG2        0.0313
     23    H       31.6370    2.9860    5.9440 H       2  LIG2        0.0313
     24    H       29.7120    2.9480    7.3550 H       2  LIG2        0.0310
     25    H       29.3280    4.3260    6.3710 H       2  LIG2        0.0310
     26    H       29.6320    2.2850    3.0680 H       2  LIG2        0.0575
     27    H       28.0160    1.6120    6.4830 H       2  LIG2        0.0572
     28    H       27.7740    3.7350    2.9330 H       2  LIG2        0.0274
     29    H       28.4220    4.6540    4.2820 H       2  LIG2        0.0274
     30    H       26.6890    4.6220    4.0070 H       2  LIG2        0.0274
     31    H       32.0880    0.3320    5.7410 H       2  LIG2        0.0274
     32    H       30.6910   -0.6200    5.2620 H       2  LIG2        0.0274
     33    H       30.5750    0.4500    6.6470 H       2  LIG2        0.0274
     34    H       25.8280   -2.6080    4.1050 H       2  LIG2        0.0274
     35    H       25.4540   -0.9240    4.3830 H       2  LIG2        0.0274
     36    H       26.2090   -1.8570    5.6580 H       2  LIG2        0.0274
     37    H       28.0640   -3.4800    4.2590 H       2  LIG2        0.0274
     38    H       28.9450   -2.4480    5.3780 H       2  LIG2        0.0274
     39    H       29.4190   -2.5590    3.6820 H       2  LIG2        0.0274
@<TRIPOS>BOND
     1    21     4    1
     2    16     1    1
     3    17     1    1
     4    28    12    1
     5     4    20    1
     6     4     2    1
     7     4    10    1
     8    26    10    1
     9     1     2    1
    10     1     3    1
    11     2     9    2
    12    10     8    2
    13    39    15    1
    14    12    30    1
    15    12    29    1
    16    12     5    1
    17     9    15    1
    18     9    14    1
    19    18     3    1
    20    34    14    1
    21    37    15    1
    22    15    38    1
    23     3     5    1
    24     3    19    1
    25    35    14    1
    26    14    36    1
    27    22     6    1
    28     8     6    1
    29     8    13    1
    30     5    11    2
    31    32    13    1
    32     6    23    1
    33     6     7    1
    34    13    31    1
    35    13    33    1
    36    11     7    1
    37    11    27    1
    38     7    25    1
    39     7    24    1
@<TRIPOS>MOLECULE
5281519_run_18.pdb
 39 39 0 0 0
SMALL
GASTEIGER

@<TRIPOS>ATOM
      1    C       27.3970   -0.3560    3.3900 C.3     2  LIG2       -0.0275
      2    C       28.5860   -0.0320    4.3200 C.2     2  LIG2       -0.0668
      3    C       25.9910    0.1610    3.8230 C.3     2  LIG2       -0.0283
      4    C       29.5330    1.0670    3.7900 C.3     2  LIG2       -0.0130
      5    C       25.7870    1.6620    3.6570 C.2     2  LIG2       -0.0762
      6    C       27.5340    4.4240    4.1760 C.3     2  LIG2       -0.0286
      7    C       26.1110    4.0070    4.6600 C.3     2  LIG2       -0.0308
      8    C       28.6060    3.3730    4.4690 C.2     2  LIG2       -0.0759
      9    C       28.7820   -0.6910    5.4990 C.2     2  LIG2       -0.0762
     10    C       28.8350    2.3930    3.5650 C.2     2  LIG2       -0.0810
     11    C       25.9110    2.4940    4.7150 C.2     2  LIG2       -0.0847
     12    C       25.5690    2.1340    2.2250 C.3     2  LIG2       -0.0438
     13    C       29.1600    3.3930    5.8870 C.3     2  LIG2       -0.0438
     14    C       27.8490   -1.7750    6.0350 C.3     2  LIG2       -0.0438
     15    C       29.9630   -0.4610    6.4390 C.3     2  LIG2       -0.0438
     16    H       27.6270   -0.0190    2.3780 H       2  LIG2        0.0313
     17    H       27.3470   -1.4400    3.2860 H       2  LIG2        0.0313
     18    H       25.2190   -0.3470    3.2420 H       2  LIG2        0.0313
     19    H       25.7980   -0.1190    4.8590 H       2  LIG2        0.0313
     20    H       30.3780    1.2500    4.4460 H       2  LIG2        0.0352
     21    H       29.9790    0.7330    2.8520 H       2  LIG2        0.0352
     22    H       27.4940    4.5800    3.0970 H       2  LIG2        0.0313
     23    H       27.8240    5.3910    4.5910 H       2  LIG2        0.0313
     24    H       25.9490    4.3830    5.6710 H       2  LIG2        0.0310
     25    H       25.3390    4.4760    4.0480 H       2  LIG2        0.0310
     26    H       28.3450    2.4630    2.6050 H       2  LIG2        0.0575
     27    H       26.0960    2.0590    5.6870 H       2  LIG2        0.0572
     28    H       26.3490    1.7570    1.5630 H       2  LIG2        0.0274
     29    H       25.5610    3.2190    2.1340 H       2  LIG2        0.0274
     30    H       24.6080    1.7700    1.8590 H       2  LIG2        0.0274
     31    H       29.8170    4.2540    6.0160 H       2  LIG2        0.0274
     32    H       29.7330    2.5030    6.1340 H       2  LIG2        0.0274
     33    H       28.3490    3.4690    6.6130 H       2  LIG2        0.0274
     34    H       28.3940   -2.7080    6.1750 H       2  LIG2        0.0274
     35    H       27.0040   -2.0020    5.3890 H       2  LIG2        0.0274
     36    H       27.4410   -1.4700    6.9980 H       2  LIG2        0.0274
     37    H       30.2730   -1.3960    6.9070 H       2  LIG2        0.0274
     38    H       29.6740    0.2250    7.2350 H       2  LIG2        0.0274
     39    H       30.8530   -0.0650    5.9540 H       2  LIG2        0.0274
@<TRIPOS>BOND
     1    28    12    1
     2    30    12    1
     3    29    12    1
     4    12     5    1
     5    16     1    1
     6    26    10    1
     7    21     4    1
     8    22     6    1
     9    18     3    1
    10    17     1    1
    11     1     3    1
    12     1     2    1
    13    10     4    1
    14    10     8    2
    15     5     3    1
    16     5    11    2
    17     4     2    1
    18     4    20    1
    19     3    19    1
    20    25     7    1
    21     6     8    1
    22     6    23    1
    23     6     7    1
    24     2     9    2
    25     8    13    1
    26     7    11    1
    27     7    24    1
    28    11    27    1
    29    35    14    1
    30     9    14    1
    31     9    15    1
    32    13    31    1
    33    13    32    1
    34    13    33    1
    35    39    15    1
    36    14    34    1
    37    14    36    1
    38    15    37    1
    39    15    38    1
@<TRIPOS>MOLECULE
5281519_run_24.pdb
 39 39 0 0 0
SMALL
GASTEIGER

@<TRIPOS>ATOM
      1    C       30.1020   -0.2370    6.1270 C.3     2  LIG2       -0.0275
      2    C       29.3050   -1.2120    5.2320 C.2     2  LIG2       -0.0668
      3    C       30.5900    1.0930    5.4760 C.3     2  LIG2       -0.0283
      4    C       27.7890   -1.2580    5.5280 C.3     2  LIG2       -0.0130
      5    C       29.4910    2.1220    5.2340 C.2     2  LIG2       -0.0762
      6    C       26.3660    2.1320    4.1490 C.3     2  LIG2       -0.0286
      7    C       27.6120    2.9490    3.6880 C.3     2  LIG2       -0.0308
      8    C       26.6200    0.6240    4.2140 C.2     2  LIG2       -0.0759
      9    C       29.9100   -1.9780    4.2800 C.2     2  LIG2       -0.0762
     10    C       27.1100    0.0860    5.3530 C.2     2  LIG2       -0.0810
     11    C       28.9380    2.2620    4.0100 C.2     2  LIG2       -0.0847
     12    C       29.0050    2.8560    6.4780 C.3     2  LIG2       -0.0438
     13    C       26.5180   -0.1060    2.8820 C.3     2  LIG2       -0.0438
     14    C       31.4060   -1.9360    3.9760 C.3     2  LIG2       -0.0438
     15    C       29.1930   -3.0000    3.4000 C.3     2  LIG2       -0.0438
     16    H       29.5300   -0.0260    7.0320 H       2  LIG2        0.0313
     17    H       30.9720   -0.7750    6.5030 H       2  LIG2        0.0313
     18    H       31.3470    1.5550    6.1110 H       2  LIG2        0.0313
     19    H       31.0990    0.8780    4.5360 H       2  LIG2        0.0313
     20    H       27.2590   -1.9740    4.9090 H       2  LIG2        0.0352
     21    H       27.6350   -1.6070    6.5500 H       2  LIG2        0.0352
     22    H       26.0850    2.4740    5.1460 H       2  LIG2        0.0313
     23    H       25.5000    2.3460    3.5200 H       2  LIG2        0.0313
     24    H       27.5790    3.0770    2.6050 H       2  LIG2        0.0310
     25    H       27.5910    3.9580    4.1010 H       2  LIG2        0.0310
     26    H       27.1800    0.7190    6.2250 H       2  LIG2        0.0575
     27    H       29.3380    1.6710    3.1980 H       2  LIG2        0.0572
     28    H       28.7350    2.1560    7.2680 H       2  LIG2        0.0274
     29    H       28.1350    3.4820    6.2860 H       2  LIG2        0.0274
     30    H       29.7950    3.5060    6.8550 H       2  LIG2        0.0274
     31    H       25.4720   -0.1870    2.5840 H       2  LIG2        0.0274
     32    H       26.9280   -1.1120    2.9150 H       2  LIG2        0.0274
     33    H       27.0540    0.4400    2.1050 H       2  LIG2        0.0274
     34    H       31.8490   -2.9220    4.1200 H       2  LIG2        0.0274
     35    H       31.9730   -1.2460    4.5960 H       2  LIG2        0.0274
     36    H       31.5650   -1.6390    2.9400 H       2  LIG2        0.0274
     37    H       29.8310   -3.8640    3.2120 H       2  LIG2        0.0274
     38    H       28.9530   -2.5530    2.4350 H       2  LIG2        0.0274
     39    H       28.2760   -3.3970    3.8290 H       2  LIG2        0.0274
@<TRIPOS>BOND
     1    33    13    1
     2    38    15    1
     3    31    13    1
     4    24     7    1
     5    13    32    1
     6    13     8    1
     7    36    14    1
     8    27    11    1
     9    37    15    1
    10    15    39    1
    11    15     9    1
    12    23     6    1
    13     7    11    1
    14     7    25    1
    15     7     6    1
    16    14    34    1
    17    14     9    1
    18    14    35    1
    19    11     5    2
    20     6     8    1
    21     6    22    1
    22     8    10    2
    23     9     2    2
    24    19     3    1
    25    20     4    1
    26     2     4    1
    27     2     1    1
    28     5     3    1
    29     5    12    1
    30    10     4    1
    31    10    26    1
    32     3    18    1
    33     3     1    1
    34     4    21    1
    35     1    17    1
    36     1    16    1
    37    29    12    1
    38    12    30    1
    39    12    28    1
@<TRIPOS>MOLECULE
5281519_run_16.pdb
 39 39 0 0 0
SMALL
GASTEIGER

@<TRIPOS>ATOM
      1    C       27.9430    0.1750    3.3630 C.3     2  LIG2       -0.0275
      2    C       28.3360    1.3240    4.3170 C.2     2  LIG2       -0.0668
      3    C       26.6200   -0.5890    3.6730 C.3     2  LIG2       -0.0283
      4    C       28.1330    2.7390    3.7320 C.3     2  LIG2       -0.0130
      5    C       25.3480    0.1890    3.3540 C.2     2  LIG2       -0.0762
      6    C       24.2450    3.2890    3.6920 C.3     2  LIG2       -0.0286
      7    C       23.6280    1.9290    4.1410 C.3     2  LIG2       -0.0308
      8    C       25.6970    3.4730    4.1390 C.2     2  LIG2       -0.0759
      9    C       28.8420    1.0890    5.5620 C.2     2  LIG2       -0.0762
     10    C       26.6940    3.0200    3.3460 C.2     2  LIG2       -0.0810
     11    C       24.6690    0.8270    4.3310 C.2     2  LIG2       -0.0847
     12    C       25.0000    0.2840    1.8730 C.3     2  LIG2       -0.0438
     13    C       25.8750    3.9470    5.5750 C.3     2  LIG2       -0.0438
     14    C       29.0420   -0.3060    6.1520 C.3     2  LIG2       -0.0438
     15    C       29.3010    2.1740    6.5340 C.3     2  LIG2       -0.0438
     16    H       27.9340    0.5440    2.3360 H       2  LIG2        0.0313
     17    H       28.7620   -0.5440    3.3610 H       2  LIG2        0.0313
     18    H       26.5930   -1.5200    3.1050 H       2  LIG2        0.0313
     19    H       26.6060   -0.8930    4.7200 H       2  LIG2        0.0313
     20    H       28.4480    3.5260    4.4100 H       2  LIG2        0.0352
     21    H       28.7690    2.8590    2.8550 H       2  LIG2        0.0352
     22    H       24.2150    3.3330    2.6030 H       2  LIG2        0.0313
     23    H       23.6340    4.1290    4.0270 H       2  LIG2        0.0313
     24    H       23.1290    2.0590    5.1020 H       2  LIG2        0.0310
     25    H       22.8490    1.6080    3.4490 H       2  LIG2        0.0310
     26    H       26.4370    2.6620    2.3600 H       2  LIG2        0.0575
     27    H       25.0170    0.7190    5.3490 H       2  LIG2        0.0572
     28    H       25.8490    0.6420    1.2910 H       2  LIG2        0.0274
     29    H       24.1640    0.9540    1.6780 H       2  LIG2        0.0274
     30    H       24.7200   -0.7010    1.4950 H       2  LIG2        0.0274
     31    H       25.6050    5.0010    5.6530 H       2  LIG2        0.0274
     32    H       26.8960    3.8420    5.9350 H       2  LIG2        0.0274
     33    H       25.2330    3.3780    6.2480 H       2  LIG2        0.0274
     34    H       30.0900   -0.4620    6.4080 H       2  LIG2        0.0274
     35    H       28.7590   -1.1200    5.4880 H       2  LIG2        0.0274
     36    H       28.4480   -0.4130    7.0590 H       2  LIG2        0.0274
     37    H       30.1690    1.8390    7.1050 H       2  LIG2        0.0274
     38    H       28.5050    2.3930    7.2450 H       2  LIG2        0.0274
     39    H       29.6010    3.1050    6.0590 H       2  LIG2        0.0274
@<TRIPOS>BOND
     1    28    12    1
     2    30    12    1
     3    29    12    1
     4    12     5    1
     5    16     1    1
     6    26    10    1
     7    22     6    1
     8    21     4    1
     9    18     3    1
    10    10     4    1
    11    10     8    2
    12     5     3    1
    13     5    11    2
    14    17     1    1
    15     1     3    1
    16     1     2    1
    17    25     7    1
    18     3    19    1
    19     6    23    1
    20     6     8    1
    21     6     7    1
    22     4     2    1
    23     4    20    1
    24     8    13    1
    25     7    11    1
    26     7    24    1
    27     2     9    2
    28    11    27    1
    29    35    14    1
    30     9    14    1
    31     9    15    1
    32    13    31    1
    33    13    32    1
    34    13    33    1
    35    39    15    1
    36    14    34    1
    37    14    36    1
    38    15    37    1
    39    15    38    1
@<TRIPOS>MOLECULE
5281519_run_2.pdb
 39 39 0 0 0
SMALL
GASTEIGER

@<TRIPOS>ATOM
      1    C       30.7390   -0.4680    4.8670 C.3     2  LIG2       -0.0275
      2    C       30.3490    1.0210    5.0010 C.2     2  LIG2       -0.0668
      3    C       29.7730   -1.5180    5.4950 C.3     2  LIG2       -0.0283
      4    C       29.8300    1.6650    3.6970 C.3     2  LIG2       -0.0130
      5    C       28.4760   -1.7290    4.7220 C.2     2  LIG2       -0.0762
      6    C       26.2490    0.1480    3.1520 C.3     2  LIG2       -0.0286
      7    C       26.0770   -0.9230    4.2720 C.3     2  LIG2       -0.0308
      8    C       27.3040    1.2070    3.4820 C.2     2  LIG2       -0.0759
      9    C       30.4810    1.7000    6.1770 C.2     2  LIG2       -0.0762
     10    C       28.5940    0.9800    3.1480 C.2     2  LIG2       -0.0810
     11    C       27.3350   -1.1230    5.1160 C.2     2  LIG2       -0.0847
     12    C       28.6080   -2.5470    3.4430 C.3     2  LIG2       -0.0438
     13    C       26.8250    2.3330    4.3870 C.3     2  LIG2       -0.0438
     14    C       30.9890    1.0700    7.4730 C.3     2  LIG2       -0.0438
     15    C       30.1670    3.1830    6.3650 C.3     2  LIG2       -0.0438
     16    H       30.9200   -0.7020    3.8180 H       2  LIG2        0.0313
     17    H       31.7220   -0.5910    5.3230 H       2  LIG2        0.0313
     18    H       30.2780   -2.4820    5.5690 H       2  LIG2        0.0313
     19    H       29.5410   -1.2390    6.5230 H       2  LIG2        0.0313
     20    H       29.5950    2.7180    3.8110 H       2  LIG2        0.0352
     21    H       30.6190    1.6370    2.9450 H       2  LIG2        0.0352
     22    H       26.5530   -0.3630    2.2370 H       2  LIG2        0.0313
     23    H       25.2970    0.6220    2.9090 H       2  LIG2        0.0313
     24    H       25.2870   -0.6070    4.9550 H       2  LIG2        0.0310
     25    H       25.7380   -1.8720    3.8550 H       2  LIG2        0.0310
     26    H       28.8170    0.1170    2.5380 H       2  LIG2        0.0575
     27    H       27.3540   -0.5380    6.0250 H       2  LIG2        0.0572
     28    H       29.4000   -2.1550    2.8050 H       2  LIG2        0.0274
     29    H       27.6920   -2.5630    2.8550 H       2  LIG2        0.0274
     30    H       28.8520   -3.5810    3.6900 H       2  LIG2        0.0274
     31    H       26.1720    3.0040    3.8290 H       2  LIG2        0.0274
     32    H       27.6400    2.9300    4.7920 H       2  LIG2        0.0274
     33    H       26.2640    1.9330    5.2320 H       2  LIG2        0.0274
     34    H       31.8790    1.5930    7.8240 H       2  LIG2        0.0274
     35    H       31.2580    0.0200    7.3880 H       2  LIG2        0.0274
     36    H       30.2230    1.1430    8.2440 H       2  LIG2        0.0274
     37    H       30.8660    3.6400    7.0670 H       2  LIG2        0.0274
     38    H       29.1650    3.2980    6.7780 H       2  LIG2        0.0274
     39    H       30.2320    3.7750    5.4550 H       2  LIG2        0.0274
@<TRIPOS>BOND
     1    22     6    1
     2    26    10    1
     3    28    12    1
     4    29    12    1
     5    23     6    1
     6    21     4    1
     7    10     8    2
     8    10     4    1
     9     6     8    1
    10     6     7    1
    11    12    30    1
    12    12     5    1
    13     8    13    1
    14     4    20    1
    15     4     2    1
    16    16     1    1
    17    31    13    1
    18    25     7    1
    19     7    24    1
    20     7    11    1
    21    13    32    1
    22    13    33    1
    23     5    11    2
    24     5     3    1
    25     1     2    1
    26     1    17    1
    27     1     3    1
    28     2     9    2
    29    11    27    1
    30    39    15    1
    31     3    18    1
    32     3    19    1
    33     9    15    1
    34     9    14    1
    35    15    38    1
    36    15    37    1
    37    35    14    1
    38    14    34    1
    39    14    36    1
@<TRIPOS>MOLECULE
5281519_run_21.pdb
 39 39 0 0 0
SMALL
GASTEIGER

@<TRIPOS>ATOM
      1    C       26.9220    2.4250    4.4720 C.3     2  LIG2       -0.0275
      2    C       25.3880    2.3040    4.3320 C.2     2  LIG2       -0.0668
      3    C       27.6800    3.2120    3.3590 C.3     2  LIG2       -0.0283
      4    C       24.5850    3.1930    5.3080 C.3     2  LIG2       -0.0130
      5    C       27.4970    4.7240    3.4150 C.2     2  LIG2       -0.0762
      6    C       25.0280    6.8560    3.9660 C.3     2  LIG2       -0.0286
      7    C       26.0410    6.7470    2.7860 C.3     2  LIG2       -0.0308
      8    C       24.3150    5.5380    4.2770 C.2     2  LIG2       -0.0759
      9    C       24.8080    1.4580    3.4320 C.2     2  LIG2       -0.0762
     10    C       24.8830    4.6700    5.1440 C.2     2  LIG2       -0.0810
     11    C       26.6090    5.3400    2.6050 C.2     2  LIG2       -0.0847
     12    C       28.2810    5.4320    4.5140 C.3     2  LIG2       -0.0438
     13    C       23.1280    5.2190    3.3790 C.3     2  LIG2       -0.0438
     14    C       25.5930    0.5790    2.4600 C.3     2  LIG2       -0.0438
     15    C       23.3030    1.2490    3.2790 C.3     2  LIG2       -0.0438
     16    H       27.1660    2.8320    5.4540 H       2  LIG2        0.0313
     17    H       27.3280    1.4140    4.5130 H       2  LIG2        0.0313
     18    H       28.7480    3.0020    3.4250 H       2  LIG2        0.0313
     19    H       27.3780    2.8460    2.3770 H       2  LIG2        0.0313
     20    H       23.5130    3.0630    5.2110 H       2  LIG2        0.0352
     21    H       24.8100    2.8930    6.3320 H       2  LIG2        0.0352
     22    H       25.5760    7.1670    4.8570 H       2  LIG2        0.0313
     23    H       24.3000    7.6500    3.7880 H       2  LIG2        0.0313
     24    H       25.5390    7.0050    1.8530 H       2  LIG2        0.0310
     25    H       26.8450    7.4760    2.8940 H       2  LIG2        0.0310
     26    H       25.7550    4.9950    5.6920 H       2  LIG2        0.0575
     27    H       26.0810    4.7410    1.8770 H       2  LIG2        0.0572
     28    H       28.1060    4.9680    5.4850 H       2  LIG2        0.0274
     29    H       28.0230    6.4860    4.6050 H       2  LIG2        0.0274
     30    H       29.3490    5.3770    4.2990 H       2  LIG2        0.0274
     31    H       22.2850    5.8600    3.6400 H       2  LIG2        0.0274
     32    H       22.7950    4.1870    3.4640 H       2  LIG2        0.0274
     33    H       23.3810    5.3940    2.3330 H       2  LIG2        0.0274
     34    H       25.3500   -0.4710    2.6190 H       2  LIG2        0.0274
     35    H       26.6740    0.6660    2.5460 H       2  LIG2        0.0274
     36    H       25.3330    0.8390    1.4340 H       2  LIG2        0.0274
     37    H       23.0800    0.2090    3.0350 H       2  LIG2        0.0274
     38    H       22.9260    1.8660    2.4640 H       2  LIG2        0.0274
     39    H       22.7260    1.4730    4.1730 H       2  LIG2        0.0274
@<TRIPOS>BOND
     1    36    14    1
     2    24     7    1
     3    27    11    1
     4    33    13    1
     5    19     3    1
     6    14    35    1
     7    14    34    1
     8    14     9    1
     9    38    15    1
    10    11     7    1
    11    11     5    2
    12     7    25    1
    13     7     6    1
    14    37    15    1
    15    15     9    1
    16    15    39    1
    17     3     5    1
    18     3    18    1
    19     3     1    1
    20    13    32    1
    21    13    31    1
    22    13     8    1
    23     5    12    1
    24     9     2    2
    25    23     6    1
    26     6     8    1
    27     6    22    1
    28     8    10    2
    29    30    12    1
    30     2     1    1
    31     2     4    1
    32     1    17    1
    33     1    16    1
    34    12    29    1
    35    12    28    1
    36    10     4    1
    37    10    26    1
    38    20     4    1
    39     4    21    1
@<TRIPOS>MOLECULE
5281519_run_17.pdb
 39 39 0 0 0
SMALL
GASTEIGER

@<TRIPOS>ATOM
      1    C       26.6410   -0.0690    4.8860 C.3     2  LIG2       -0.0275
      2    C       26.1630    1.2690    4.2790 C.2     2  LIG2       -0.0668
      3    C       27.9850   -0.6540    4.3540 C.3     2  LIG2       -0.0283
      4    C       26.3250    2.4890    5.2120 C.3     2  LIG2       -0.0130
      5    C       29.2320    0.0780    4.8370 C.2     2  LIG2       -0.0762
      6    C       30.1830    3.2120    5.3040 C.3     2  LIG2       -0.0286
      7    C       30.8430    2.0520    4.4970 C.3     2  LIG2       -0.0308
      8    C       28.7090    3.4300    4.9570 C.2     2  LIG2       -0.0759
      9    C       25.6230    1.3430    3.0280 C.2     2  LIG2       -0.0762
     10    C       27.7630    2.7330    5.6240 C.2     2  LIG2       -0.0810
     11    C       29.8450    0.9850    4.0470 C.2     2  LIG2       -0.0847
     12    C       29.6300   -0.2020    6.2810 C.3     2  LIG2       -0.0438
     13    C       28.4580    4.2550    3.7020 C.3     2  LIG2       -0.0438
     14    C       25.4630    0.1430    2.0960 C.3     2  LIG2       -0.0438
     15    C       25.0810    2.6190    2.3890 C.3     2  LIG2       -0.0438
     16    H       26.6720    0.0170    5.9730 H       2  LIG2        0.0313
     17    H       25.8550   -0.8050    4.7170 H       2  LIG2        0.0313
     18    H       28.0740   -1.6990    4.6540 H       2  LIG2        0.0313
     19    H       27.9740   -0.6710    3.2630 H       2  LIG2        0.0313
     20    H       25.9510    3.4080    4.7740 H       2  LIG2        0.0352
     21    H       25.7170    2.3400    6.1050 H       2  LIG2        0.0352
     22    H       30.2520    2.9690    6.3660 H       2  LIG2        0.0313
     23    H       30.7440    4.1410    5.1890 H       2  LIG2        0.0313
     24    H       31.3010    2.4550    3.5930 H       2  LIG2        0.0310
     25    H       31.6600    1.6010    5.0610 H       2  LIG2        0.0310
     26    H       28.0720    2.1420    6.4750 H       2  LIG2        0.0575
     27    H       29.4660    1.1310    3.0460 H       2  LIG2        0.0572
     28    H       28.7870   -0.0540    6.9570 H       2  LIG2        0.0274
     29    H       30.4410    0.4360    6.6270 H       2  LIG2        0.0274
     30    H       29.9660   -1.2350    6.3780 H       2  LIG2        0.0274
     31    H       28.6770    5.3050    3.8990 H       2  LIG2        0.0274
     32    H       27.4300    4.1950    3.3520 H       2  LIG2        0.0274
     33    H       29.0990    3.9170    2.8880 H       2  LIG2        0.0274
     34    H       24.4150    0.0060    1.8320 H       2  LIG2        0.0274
     35    H       25.8060   -0.8010    2.5130 H       2  LIG2        0.0274
     36    H       26.0270    0.3100    1.1790 H       2  LIG2        0.0274
     37    H       24.2080    2.4020    1.7710 H       2  LIG2        0.0274
     38    H       25.8400    3.0600    1.7430 H       2  LIG2        0.0274
     39    H       24.7570    3.3760    3.1010 H       2  LIG2        0.0274
@<TRIPOS>BOND
     1    36    14    1
     2    38    15    1
     3    37    15    1
     4    34    14    1
     5    14    35    1
     6    14     9    1
     7    15     9    1
     8    15    39    1
     9    33    13    1
    10     9     2    2
    11    27    11    1
    12    19     3    1
    13    32    13    1
    14    24     7    1
    15    13    31    1
    16    13     8    1
    17    11     7    1
    18    11     5    2
    19     2     1    1
    20     2     4    1
    21     3    18    1
    22     3     5    1
    23     3     1    1
    24     7    25    1
    25     7     6    1
    26    17     1    1
    27    20     4    1
    28     5    12    1
    29     1    16    1
    30     8     6    1
    31     8    10    2
    32    23     6    1
    33     4    10    1
    34     4    21    1
    35     6    22    1
    36    10    26    1
    37    12    30    1
    38    12    29    1
    39    12    28    1
@<TRIPOS>MOLECULE
5281519_run_13.pdb
 39 39 0 0 0
SMALL
GASTEIGER

@<TRIPOS>ATOM
      1    C       27.3300    1.3550    5.2170 C.3     2  LIG2       -0.0275
      2    C       28.7890    1.4200    5.7180 C.2     2  LIG2       -0.0668
      3    C       27.1060    0.9960    3.7160 C.3     2  LIG2       -0.0283
      4    C       29.2160    0.2270    6.6020 C.3     2  LIG2       -0.0130
      5    C       27.3510   -0.4680    3.3700 C.2     2  LIG2       -0.0762
      6    C       29.5580   -2.8110    4.1380 C.3     2  LIG2       -0.0286
      7    C       29.0660   -2.2820    2.7560 C.3     2  LIG2       -0.0308
      8    C       30.0100   -1.6980    5.0860 C.2     2  LIG2       -0.0759
      9    C       29.6120    2.4650    5.4150 C.2     2  LIG2       -0.0762
     10    C       29.1000   -1.1070    5.8920 C.2     2  LIG2       -0.0810
     11    C       28.5190   -0.8570    2.8140 C.2     2  LIG2       -0.0847
     12    C       26.2560   -1.4310    3.8110 C.3     2  LIG2       -0.0438
     13    C       31.4270   -1.1900    4.8550 C.3     2  LIG2       -0.0438
     14    C       29.2020    3.6470    4.5380 C.3     2  LIG2       -0.0438
     15    C       31.0450    2.6200    5.9210 C.3     2  LIG2       -0.0438
     16    H       26.7570    0.6810    5.8550 H       2  LIG2        0.0313
     17    H       26.8740    2.3260    5.4090 H       2  LIG2        0.0313
     18    H       26.0820    1.2400    3.4300 H       2  LIG2        0.0313
     19    H       27.7350    1.6280    3.0880 H       2  LIG2        0.0313
     20    H       30.2340    0.3150    6.9680 H       2  LIG2        0.0352
     21    H       28.5990    0.2100    7.5010 H       2  LIG2        0.0352
     22    H       28.7330   -3.3470    4.6100 H       2  LIG2        0.0313
     23    H       30.3480   -3.5540    4.0170 H       2  LIG2        0.0313
     24    H       29.9020   -2.2700    2.0550 H       2  LIG2        0.0310
     25    H       28.3300   -2.9590    2.3190 H       2  LIG2        0.0310
     26    H       28.1080   -1.5320    5.9370 H       2  LIG2        0.0575
     27    H       29.2450   -0.0950    2.5650 H       2  LIG2        0.0572
     28    H       26.0170   -1.3000    4.8670 H       2  LIG2        0.0274
     29    H       26.5280   -2.4760    3.6650 H       2  LIG2        0.0274
     30    H       25.3490   -1.2490    3.2330 H       2  LIG2        0.0274
     31    H       32.1470   -1.9290    5.2070 H       2  LIG2        0.0274
     32    H       31.6350   -0.2570    5.3740 H       2  LIG2        0.0274
     33    H       31.6030   -1.0190    3.7930 H       2  LIG2        0.0274
     34    H       29.2970    4.5800    5.0920 H       2  LIG2        0.0274
     35    H       28.1780    3.6040    4.1740 H       2  LIG2        0.0274
     36    H       29.8490    3.7010    3.6630 H       2  LIG2        0.0274
     37    H       31.2760    3.6690    6.1120 H       2  LIG2        0.0274
     38    H       31.7440    2.2630    5.1650 H       2  LIG2        0.0274
     39    H       31.2510    2.0980    6.8520 H       2  LIG2        0.0274
@<TRIPOS>BOND
     1    24     7    1
     2    25     7    1
     3    27    11    1
     4     7    11    1
     5     7     6    1
     6    11     5    2
     7    19     3    1
     8    30    12    1
     9     5     3    1
    10     5    12    1
    11    18     3    1
    12    36    14    1
    13    29    12    1
    14     3     1    1
    15    33    13    1
    16    12    28    1
    17    23     6    1
    18     6    22    1
    19     6     8    1
    20    35    14    1
    21    14    34    1
    22    14     9    1
    23    13     8    1
    24    13    31    1
    25    13    32    1
    26     8    10    2
    27    38    15    1
    28     1    17    1
    29     1     2    1
    30     1    16    1
    31     9     2    2
    32     9    15    1
    33     2     4    1
    34    10    26    1
    35    10     4    1
    36    15    37    1
    37    15    39    1
    38     4    20    1
    39     4    21    1
