@<TRIPOS>MOLECULE
11996452_8_run_14.pdb
 42 44 0 0 0
SMALL
GASTEIGER

@<TRIPOS>ATOM
      1    O       29.3490    3.5740    6.5880 O.3     2  LIG2       -0.3886
      2    C       28.6370    0.1920    3.7210 C.3     2  LIG2       -0.0289
      3    C       28.7620   -1.3220    3.8600 C.3     2  LIG2       -0.0284
      4    C       29.6930   -0.4310    4.6460 C.3     2  LIG2       -0.0319
      5    C       27.4710    1.0140    4.3420 C.3     2  LIG2       -0.0294
      6    C       27.8100    2.1840    5.3290 C.3     2  LIG2       -0.0090
      7    C       29.5720   -0.1580    6.1560 C.3     2  LIG2       -0.0468
      8    C       26.5430    1.6130    3.2600 C.3     2  LIG2       -0.0404
      9    C       29.3090    2.4460    5.7250 C.3     2  LIG2        0.0664
     10    C       27.0300    3.4060    4.7960 C.3     2  LIG2       -0.0471
     11    C       29.9470    1.2840    6.5550 C.3     2  LIG2       -0.0237
     12    C       27.6840   -2.1710    4.5730 C.3     2  LIG2       -0.0593
     13    C       29.3660   -2.0690    2.6570 C.3     2  LIG2       -0.0593
     14    C       25.9140    2.8410    3.9200 C.3     2  LIG2       -0.0498
     15    C       25.5170    0.6090    2.7070 C.3     2  LIG2       -0.0621
     16    C       30.2390    2.8720    4.5560 C.3     2  LIG2       -0.0358
     17    H       29.0080    0.6410    2.8000 H       2  LIG2        0.0312
     18    H       30.7360   -0.4220    4.3260 H       2  LIG2        0.0309
     19    H       26.8520    0.3370    4.9280 H       2  LIG2        0.0310
     20    H       27.3190    1.9330    6.2730 H       2  LIG2        0.0331
     21    H       28.5650   -0.3570    6.5170 H       2  LIG2        0.0269
     22    H       30.2140   -0.8570    6.6940 H       2  LIG2        0.0269
     23    H       27.1460    1.9750    2.4240 H       2  LIG2        0.0301
     24    H       26.6210    4.0110    5.6050 H       2  LIG2        0.0269
     25    H       27.6660    4.0610    4.2020 H       2  LIG2        0.0269
     26    H       29.6640    1.3790    7.6060 H       2  LIG2        0.0293
     27    H       31.0360    1.3750    6.5420 H       2  LIG2        0.0293
     28    H       28.0990   -3.1260    4.8950 H       2  LIG2        0.0235
     29    H       26.8560   -2.3840    3.8970 H       2  LIG2        0.0235
     30    H       27.2560   -1.7080    5.4580 H       2  LIG2        0.0235
     31    H       29.8270   -3.0070    2.9680 H       2  LIG2        0.0235
     32    H       30.1350   -1.4820    2.1520 H       2  LIG2        0.0235
     33    H       28.5990   -2.3010    1.9170 H       2  LIG2        0.0235
     34    H       25.5710    3.5720    3.1870 H       2  LIG2        0.0268
     35    H       25.0550    2.5580    4.5310 H       2  LIG2        0.0268
     36    H       24.8670    0.2210    3.4930 H       2  LIG2        0.0233
     37    H       26.0140   -0.2410    2.2390 H       2  LIG2        0.0233
     38    H       24.8820    1.0730    1.9520 H       2  LIG2        0.0233
     39    H       30.4140    2.0790    3.8340 H       2  LIG2        0.0257
     40    H       31.2250    3.1650    4.9180 H       2  LIG2        0.0257
     41    H       29.8460    3.7250    4.0020 H       2  LIG2        0.0257
     42    H       29.0300    4.3370    6.1000 H       2  LIG2        0.2102
@<TRIPOS>BOND
     1    33    13    1
     2    38    15    1
     3    32    13    1
     4    37    15    1
     5    23     8    1
     6    13    31    1
     7    13     3    1
     8    15     8    1
     9    15    36    1
    10    17     2    1
    11    34    14    1
    12     8    14    1
    13     8     5    1
    14     2     3    1
    15     2     5    1
    16     2     4    1
    17    39    16    1
    18     3    12    1
    19     3     4    1
    20    29    12    1
    21    14    35    1
    22    14    10    1
    23    41    16    1
    24    25    10    1
    25    18     4    1
    26     5    19    1
    27     5     6    1
    28    16    40    1
    29    16     9    1
    30    12    28    1
    31    12    30    1
    32     4     7    1
    33    10     6    1
    34    10    24    1
    35     6     9    1
    36     6    20    1
    37     9    11    1
    38     9     1    1
    39    42     1    1
    40     7    21    1
    41     7    11    1
    42     7    22    1
    43    27    11    1
    44    11    26    1
@<TRIPOS>MOLECULE
11996452_8_run_6.pdb
 42 44 0 0 0
SMALL
GASTEIGER

@<TRIPOS>ATOM
      1    O       30.1720   -1.1640    6.2150 O.3     2  LIG2       -0.3886
      2    C       27.3280    0.9200    3.4350 C.3     2  LIG2       -0.0289
      3    C       25.8250    0.7900    3.2090 C.3     2  LIG2       -0.0284
      4    C       26.6160   -0.4280    3.6190 C.3     2  LIG2       -0.0319
      5    C       27.9480    1.6290    4.6740 C.3     2  LIG2       -0.0294
      6    C       28.9380    0.8280    5.5880 C.3     2  LIG2       -0.0090
      7    C       26.6020   -1.0430    5.0290 C.3     2  LIG2       -0.0468
      8    C       28.6730    2.9390    4.2900 C.3     2  LIG2       -0.0404
      9    C       29.2190   -0.6870    5.2760 C.3     2  LIG2        0.0664
     10    C       30.1850    1.7300    5.7270 C.3     2  LIG2       -0.0471
     11    C       27.9690   -1.6070    5.4720 C.3     2  LIG2       -0.0237
     12    C       24.7940    1.4290    4.1690 C.3     2  LIG2       -0.0593
     13    C       25.3490    0.8500    1.7460 C.3     2  LIG2       -0.0593
     14    C       29.7180    3.1440    5.3880 C.3     2  LIG2       -0.0498
     15    C       27.7230    4.1350    4.1040 C.3     2  LIG2       -0.0621
     16    C       29.9080   -0.9660    3.9120 C.3     2  LIG2       -0.0358
     17    H       27.9590    1.0160    2.5520 H       2  LIG2        0.0312
     18    H       26.7490   -1.1960    2.8550 H       2  LIG2        0.0309
     19    H       27.1380    1.9180    5.3420 H       2  LIG2        0.0310
     20    H       28.4900    0.8220    6.5850 H       2  LIG2        0.0331
     21    H       26.2780   -0.3210    5.7760 H       2  LIG2        0.0269
     22    H       25.8590   -1.8420    5.0600 H       2  LIG2        0.0269
     23    H       29.2190    2.7930    3.3550 H       2  LIG2        0.0301
     24    H       30.6060    1.6900    6.7310 H       2  LIG2        0.0269
     25    H       30.9760    1.4300    5.0400 H       2  LIG2        0.0269
     26    H       27.8530   -1.8570    6.5290 H       2  LIG2        0.0293
     27    H       28.1300   -2.5620    4.9670 H       2  LIG2        0.0293
     28    H       23.8240    0.9400    4.0700 H       2  LIG2        0.0235
     29    H       24.6540    2.4840    3.9340 H       2  LIG2        0.0235
     30    H       25.0600    1.3730    5.2210 H       2  LIG2        0.0235
     31    H       24.4010    0.3250    1.6200 H       2  LIG2        0.0235
     32    H       26.0650    0.3930    1.0620 H       2  LIG2        0.0235
     33    H       25.2070    1.8820    1.4240 H       2  LIG2        0.0235
     34    H       30.5470    3.7700    5.0550 H       2  LIG2        0.0268
     35    H       29.2750    3.6210    6.2640 H       2  LIG2        0.0268
     36    H       27.1580    4.3470    5.0140 H       2  LIG2        0.0233
     37    H       27.0050    3.9440    3.3060 H       2  LIG2        0.0233
     38    H       28.2750    5.0370    3.8390 H       2  LIG2        0.0233
     39    H       29.2720   -0.7560    3.0570 H       2  LIG2        0.0257
     40    H       30.1930   -2.0150    3.8170 H       2  LIG2        0.0257
     41    H       30.8210   -0.3850    3.7810 H       2  LIG2        0.0257
     42    H       31.0070   -0.7220    6.0480 H       2  LIG2        0.2102
@<TRIPOS>BOND
     1    32    13    1
     2    33    13    1
     3    31    13    1
     4    13     3    1
     5    17     2    1
     6    18     4    1
     7    39    16    1
     8     3     2    1
     9     3     4    1
    10     3    12    1
    11    37    15    1
    12    23     8    1
    13     2     4    1
    14     2     5    1
    15     4     7    1
    16    41    16    1
    17    40    16    1
    18    38    15    1
    19    16     9    1
    20    29    12    1
    21    28    12    1
    22    15     8    1
    23    15    36    1
    24    12    30    1
    25     8     5    1
    26     8    14    1
    27     5    19    1
    28     5     6    1
    29    27    11    1
    30     7    22    1
    31     7    11    1
    32     7    21    1
    33    25    10    1
    34    34    14    1
    35     9    11    1
    36     9     6    1
    37     9     1    1
    38    14    10    1
    39    14    35    1
    40    11    26    1
    41     6    10    1
    42     6    20    1
    43    10    24    1
    44    42     1    1
@<TRIPOS>MOLECULE
11996452_8_run_2.pdb
 42 44 0 0 0
SMALL
GASTEIGER

@<TRIPOS>ATOM
      1    O       24.0580    3.8570    3.1050 O.3     2  LIG2       -0.3886
      2    C       27.1110    0.9830    4.7130 C.3     2  LIG2       -0.0289
      3    C       27.5250   -0.4240    4.2940 C.3     2  LIG2       -0.0284
      4    C       26.0920    0.0100    4.1020 C.3     2  LIG2       -0.0319
      5    C       27.5100    2.2620    3.9220 C.3     2  LIG2       -0.0294
      6    C       26.3790    3.2150    3.4020 C.3     2  LIG2       -0.0090
      7    C       25.4670    0.3850    2.7480 C.3     2  LIG2       -0.0468
      8    C       28.4980    3.1500    4.7140 C.3     2  LIG2       -0.0404
      9    C       24.8740    2.8170    3.6250 C.3     2  LIG2        0.0664
     10    C       26.7810    4.6270    3.8850 C.3     2  LIG2       -0.0471
     11    C       24.4450    1.5370    2.8360 C.3     2  LIG2       -0.0237
     12    C       28.4470   -0.6790    3.0790 C.3     2  LIG2       -0.0593
     13    C       27.8030   -1.4200    5.4350 C.3     2  LIG2       -0.0593
     14    C       28.2810    4.5620    4.1650 C.3     2  LIG2       -0.0498
     15    C       29.9560    2.6690    4.6340 C.3     2  LIG2       -0.0621
     16    C       24.4240    2.7340    5.1090 C.3     2  LIG2       -0.0358
     17    H       27.0140    1.1780    5.7810 H       2  LIG2        0.0312
     18    H       25.3560   -0.4530    4.7620 H       2  LIG2        0.0309
     19    H       28.0390    1.9550    3.0210 H       2  LIG2        0.0310
     20    H       26.4920    3.2530    2.3150 H       2  LIG2        0.0331
     21    H       26.2280    0.6650    2.0220 H       2  LIG2        0.0269
     22    H       24.9780   -0.4950    2.3270 H       2  LIG2        0.0269
     23    H       28.2050    3.1700    5.7660 H       2  LIG2        0.0301
     24    H       26.5580    5.3900    3.1400 H       2  LIG2        0.0269
     25    H       26.2500    4.9070    4.7940 H       2  LIG2        0.0269
     26    H       24.2100    1.8000    1.8010 H       2  LIG2        0.0293
     27    H       23.5140    1.1430    3.2490 H       2  LIG2        0.0293
     28    H       28.3320   -1.7020    2.7190 H       2  LIG2        0.0235
     29    H       29.4920   -0.5440    3.3560 H       2  LIG2        0.0235
     30    H       28.2620   -0.0320    2.2260 H       2  LIG2        0.0235
     31    H       27.6490   -2.4480    5.1050 H       2  LIG2        0.0235
     32    H       27.1510   -1.2540    6.2930 H       2  LIG2        0.0235
     33    H       28.8310   -1.3310    5.7880 H       2  LIG2        0.0235
     34    H       28.5900    5.3310    4.8740 H       2  LIG2        0.0268
     35    H       28.8490    4.7140    3.2460 H       2  LIG2        0.0268
     36    H       30.3180    2.6440    3.6050 H       2  LIG2        0.0233
     37    H       30.0600    1.6640    5.0460 H       2  LIG2        0.0233
     38    H       30.6170    3.3240    5.2020 H       2  LIG2        0.0233
     39    H       24.8760    1.9080    5.6520 H       2  LIG2        0.0257
     40    H       23.3460    2.5850    5.1910 H       2  LIG2        0.0257
     41    H       24.6540    3.6430    5.6650 H       2  LIG2        0.0257
     42    H       23.1390    3.6080    3.2260 H       2  LIG2        0.2102
@<TRIPOS>BOND
     1    26    11    1
     2    21     7    1
     3    30    12    1
     4    20     6    1
     5    22     7    1
     6    28    12    1
     7     7    11    1
     8     7     4    1
     9    11    27    1
    10    11     9    1
    11    19     5    1
    12    12    29    1
    13    12     3    1
    14     1    42    1
    15     1     9    1
    16    24    10    1
    17    35    14    1
    18     6     9    1
    19     6    10    1
    20     6     5    1
    21    36    15    1
    22     9    16    1
    23    10    14    1
    24    10    25    1
    25     5     2    1
    26     5     8    1
    27     4     3    1
    28     4     2    1
    29     4    18    1
    30    14     8    1
    31    14    34    1
    32     3     2    1
    33     3    13    1
    34    15     8    1
    35    15    37    1
    36    15    38    1
    37     2    17    1
    38     8    23    1
    39    31    13    1
    40    16    40    1
    41    16    39    1
    42    16    41    1
    43    13    33    1
    44    13    32    1
@<TRIPOS>MOLECULE
11996452_8_run_8.pdb
 42 44 0 0 0
SMALL
GASTEIGER

@<TRIPOS>ATOM
      1    O       31.3720    0.2920    5.3550 O.3     2  LIG2       -0.3886
      2    C       27.1950    1.8900    4.9440 C.3     2  LIG2       -0.0289
      3    C       26.6490    3.2670    4.5800 C.3     2  LIG2       -0.0284
      4    C       27.9570    3.1670    5.3270 C.3     2  LIG2       -0.0319
      5    C       27.8180    0.9160    3.9020 C.3     2  LIG2       -0.0294
      6    C       29.2820    0.4010    4.1270 C.3     2  LIG2       -0.0090
      7    C       29.3420    3.3920    4.6950 C.3     2  LIG2       -0.0468
      8    C       26.9430   -0.3400    3.6860 C.3     2  LIG2       -0.0404
      9    C       30.1070    0.9390    5.3530 C.3     2  LIG2        0.0664
     10    C       29.1980   -1.1360    3.9940 C.3     2  LIG2       -0.0471
     11    C       30.4370    2.4650    5.2610 C.3     2  LIG2       -0.0237
     12    C       26.6040    3.7720    3.1190 C.3     2  LIG2       -0.0593
     13    C       25.4250    3.7470    5.3830 C.3     2  LIG2       -0.0593
     14    C       27.9180   -1.4190    3.2110 C.3     2  LIG2       -0.0498
     15    C       25.7590   -0.1070    2.7320 C.3     2  LIG2       -0.0621
     16    C       29.5310    0.5770    6.7490 C.3     2  LIG2       -0.0358
     17    H       26.7050    1.3570    5.7580 H       2  LIG2        0.0312
     18    H       27.9420    3.4880    6.3700 H       2  LIG2        0.0309
     19    H       27.8570    1.4250    2.9400 H       2  LIG2        0.0310
     20    H       29.8530    0.7240    3.2530 H       2  LIG2        0.0331
     21    H       29.3130    3.2590    3.6150 H       2  LIG2        0.0269
     22    H       29.6370    4.4310    4.8500 H       2  LIG2        0.0269
     23    H       26.5430   -0.6740    4.6460 H       2  LIG2        0.0301
     24    H       30.0670   -1.5470    3.4800 H       2  LIG2        0.0269
     25    H       29.1480   -1.6220    4.9670 H       2  LIG2        0.0269
     26    H       31.3090    2.6180    4.6210 H       2  LIG2        0.0293
     27    H       30.7340    2.8390    6.2430 H       2  LIG2        0.0293
     28    H       26.5410    4.8600    3.0910 H       2  LIG2        0.0235
     29    H       25.7260    3.3790    2.6050 H       2  LIG2        0.0235
     30    H       27.4680    3.4990    2.5190 H       2  LIG2        0.0235
     31    H       25.3720    4.8360    5.4040 H       2  LIG2        0.0235
     32    H       25.4530    3.4040    6.4180 H       2  LIG2        0.0235
     33    H       24.5000    3.3750    4.9430 H       2  LIG2        0.0235
     34    H       27.5440   -2.4250    3.4040 H       2  LIG2        0.0268
     35    H       28.0990   -1.3350    2.1380 H       2  LIG2        0.0268
     36    H       26.0940    0.2130    1.7440 H       2  LIG2        0.0233
     37    H       25.0900    0.6620    3.1200 H       2  LIG2        0.0233
     38    H       25.1730   -1.0170    2.6050 H       2  LIG2        0.0233
     39    H       28.5940    1.0780    6.9730 H       2  LIG2        0.0257
     40    H       30.2160    0.8630    7.5490 H       2  LIG2        0.0257
     41    H       29.3540   -0.4930    6.8620 H       2  LIG2        0.0257
     42    H       31.7520    0.3720    4.4770 H       2  LIG2        0.2102
@<TRIPOS>BOND
     1    36    15    1
     2    35    14    1
     3    30    12    1
     4    38    15    1
     5    29    12    1
     6    15    37    1
     7    15     8    1
     8    19     5    1
     9    28    12    1
    10    12     3    1
    11    14    34    1
    12    14     8    1
    13    14    10    1
    14    20     6    1
    15    24    10    1
    16    21     7    1
    17     8     5    1
    18     8    23    1
    19     5     6    1
    20     5     2    1
    21    10     6    1
    22    10    25    1
    23     6     9    1
    24    42     1    1
    25     3     2    1
    26     3     4    1
    27     3    13    1
    28    26    11    1
    29     7    22    1
    30     7    11    1
    31     7     4    1
    32    33    13    1
    33     2     4    1
    34     2    17    1
    35    11     9    1
    36    11    27    1
    37     4    18    1
    38     9     1    1
    39     9    16    1
    40    13    31    1
    41    13    32    1
    42    16    41    1
    43    16    39    1
    44    16    40    1
@<TRIPOS>MOLECULE
11996452_8_run_2.pdb
 42 44 0 0 0
SMALL
GASTEIGER

@<TRIPOS>ATOM
      1    O       26.7040   -2.2530    3.6050 O.3     2  LIG2       -0.3886
      2    C       28.3930    1.5170    5.3640 C.3     2  LIG2       -0.0289
      3    C       29.7940    2.1200    5.3590 C.3     2  LIG2       -0.0284
      4    C       29.6390    0.6190    5.3550 C.3     2  LIG2       -0.0319
      5    C       27.4540    1.5270    4.1230 C.3     2  LIG2       -0.0294
      6    C       26.9030    0.1640    3.5790 C.3     2  LIG2       -0.0090
      7    C       29.8650   -0.2790    4.1270 C.3     2  LIG2       -0.0468
      8    C       26.2240    2.4410    4.3340 C.3     2  LIG2       -0.0404
      9    C       27.3730   -1.1780    4.2490 C.3     2  LIG2        0.0664
     10    C       25.3750    0.3600    3.4600 C.3     2  LIG2       -0.0471
     11    C       28.8960   -1.4760    4.0490 C.3     2  LIG2       -0.0237
     12    C       30.3620    2.8640    4.1270 C.3     2  LIG2       -0.0593
     13    C       30.2610    2.7680    6.6760 C.3     2  LIG2       -0.0593
     14    C       25.1490    1.8700    3.4080 C.3     2  LIG2       -0.0498
     15    C       26.5190    3.9320    4.1000 C.3     2  LIG2       -0.0621
     16    C       26.9610   -1.3560    5.7360 C.3     2  LIG2       -0.0358
     17    H       27.8350    1.5590    6.2990 H       2  LIG2        0.0312
     18    H       29.9150    0.1040    6.2770 H       2  LIG2        0.0309
     19    H       28.0030    1.9510    3.2840 H       2  LIG2        0.0310
     20    H       27.2530    0.0900    2.5450 H       2  LIG2        0.0331
     21    H       29.7800    0.2850    3.2000 H       2  LIG2        0.0269
     22    H       30.8910   -0.6500    4.1440 H       2  LIG2        0.0269
     23    H       25.8560    2.3250    5.3560 H       2  LIG2        0.0301
     24    H       24.9710   -0.1250    2.5720 H       2  LIG2        0.0269
     25    H       24.8490   -0.0600    4.3170 H       2  LIG2        0.0269
     26    H       29.0610   -1.9220    3.0650 H       2  LIG2        0.0293
     27    H       29.2210   -2.2330    4.7650 H       2  LIG2        0.0293
     28    H       31.4510    2.8920    4.1650 H       2  LIG2        0.0235
     29    H       30.0080    3.8940    4.1050 H       2  LIG2        0.0235
     30    H       30.0990    2.4210    3.1710 H       2  LIG2        0.0235
     31    H       31.3490    2.7640    6.7510 H       2  LIG2        0.0235
     32    H       29.8730    2.2450    7.5510 H       2  LIG2        0.0235
     33    H       29.9240    3.8030    6.7420 H       2  LIG2        0.0235
     34    H       24.1430    2.1360    3.7320 H       2  LIG2        0.0268
     35    H       25.2760    2.2400    2.3890 H       2  LIG2        0.0268
     36    H       26.8750    4.1190    3.0850 H       2  LIG2        0.0233
     37    H       27.2830    4.2930    4.7900 H       2  LIG2        0.0233
     38    H       25.6260    4.5380    4.2540 H       2  LIG2        0.0233
     39    H       27.4690   -0.6710    6.4090 H       2  LIG2        0.0257
     40    H       27.2010   -2.3570    6.0990 H       2  LIG2        0.0257
     41    H       25.8910   -1.2190    5.8910 H       2  LIG2        0.0257
     42    H       26.8490   -2.1750    2.6590 H       2  LIG2        0.2102
@<TRIPOS>BOND
     1    35    14    1
     2    20     6    1
     3    24    10    1
     4    42     1    1
     5    26    11    1
     6    36    15    1
     7    30    12    1
     8    21     7    1
     9    19     5    1
    10    14    10    1
    11    14    34    1
    12    14     8    1
    13    10     6    1
    14    10    25    1
    15     6     5    1
    16     6     9    1
    17     1     9    1
    18    11     7    1
    19    11     9    1
    20    11    27    1
    21    15    38    1
    22    15     8    1
    23    15    37    1
    24    29    12    1
    25     5     8    1
    26     5     2    1
    27    12    28    1
    28    12     3    1
    29     7    22    1
    30     7     4    1
    31     9    16    1
    32     8    23    1
    33     4     3    1
    34     4     2    1
    35     4    18    1
    36     3     2    1
    37     3    13    1
    38     2    17    1
    39    16    41    1
    40    16    40    1
    41    16    39    1
    42    13    33    1
    43    13    31    1
    44    13    32    1
@<TRIPOS>MOLECULE
11996452_8_run_21.pdb
 42 44 0 0 0
SMALL
GASTEIGER

@<TRIPOS>ATOM
      1    O       30.6100    3.5640    4.6050 O.3     2  LIG2       -0.3886
      2    C       26.3130    2.2890    4.8720 C.3     2  LIG2       -0.0289
      3    C       25.0200    2.9030    4.3460 C.3     2  LIG2       -0.0284
      4    C       26.1550    3.8110    4.7510 C.3     2  LIG2       -0.0319
      5    C       27.3420    1.5560    3.9640 C.3     2  LIG2       -0.0294
      6    C       28.8250    2.0640    3.9360 C.3     2  LIG2       -0.0090
      7    C       27.0770    4.5500    3.7650 C.3     2  LIG2       -0.0468
      8    C       27.4060    0.0410    4.2650 C.3     2  LIG2       -0.0404
      9    C       29.2160    3.3420    4.7640 C.3     2  LIG2        0.0664
     10    C       29.6910    0.8080    4.1860 C.3     2  LIG2       -0.0471
     11    C       28.5400    4.6530    4.2430 C.3     2  LIG2       -0.0237
     12    C       24.5950    2.7750    2.8650 C.3     2  LIG2       -0.0593
     13    C       23.8050    2.8460    5.2910 C.3     2  LIG2       -0.0593
     14    C       28.8090   -0.3860    3.8280 C.3     2  LIG2       -0.0498
     15    C       26.2760   -0.7660    3.6040 C.3     2  LIG2       -0.0621
     16    C       29.0610    3.2080    6.3030 C.3     2  LIG2       -0.0358
     17    H       26.2970    1.8810    5.8830 H       2  LIG2        0.0312
     18    H       26.0060    4.3930    5.6630 H       2  LIG2        0.0309
     19    H       27.0080    1.6430    2.9320 H       2  LIG2        0.0310
     20    H       29.0300    2.3380    2.8980 H       2  LIG2        0.0331
     21    H       27.0750    4.0750    2.7860 H       2  LIG2        0.0269
     22    H       26.6840    5.5550    3.5980 H       2  LIG2        0.0269
     23    H       27.3480   -0.1180    5.3450 H       2  LIG2        0.0301
     24    H       30.5990    0.8150    3.5840 H       2  LIG2        0.0269
     25    H       30.0020    0.7360    5.2270 H       2  LIG2        0.0269
     26    H       29.0990    5.0470    3.3910 H       2  LIG2        0.0293
     27    H       28.6000    5.4290    5.0090 H       2  LIG2        0.0293
     28    H       23.8790    3.5540    2.6020 H       2  LIG2        0.0235
     29    H       24.1130    1.8130    2.6870 H       2  LIG2        0.0235
     30    H       25.4110    2.8540    2.1510 H       2  LIG2        0.0235
     31    H       23.0990    3.6470    5.0720 H       2  LIG2        0.0235
     32    H       24.0940    2.9450    6.3380 H       2  LIG2        0.0235
     33    H       23.2770    1.8970    5.1900 H       2  LIG2        0.0235
     34    H       29.1390   -1.2940    4.3340 H       2  LIG2        0.0268
     35    H       28.8410   -0.5770    2.7540 H       2  LIG2        0.0268
     36    H       26.2900   -0.6640    2.5180 H       2  LIG2        0.0233
     37    H       25.2990   -0.4310    3.9550 H       2  LIG2        0.0233
     38    H       26.3620   -1.8270    3.8390 H       2  LIG2        0.0233
     39    H       28.0270    3.1340    6.6280 H       2  LIG2        0.0257
     40    H       29.4710    4.0760    6.8220 H       2  LIG2        0.0257
     41    H       29.5810    2.3360    6.7000 H       2  LIG2        0.0257
     42    H       30.7770    3.7910    3.6870 H       2  LIG2        0.2102
@<TRIPOS>BOND
     1    30    12    1
     2    36    15    1
     3    28    12    1
     4    29    12    1
     5    35    14    1
     6    21     7    1
     7    12     3    1
     8    20     6    1
     9    19     5    1
    10    26    11    1
    11    24    10    1
    12    22     7    1
    13    15    38    1
    14    15    37    1
    15    15     8    1
    16    42     1    1
    17     7    11    1
    18     7     4    1
    19    14    10    1
    20    14     8    1
    21    14    34    1
    22     6     5    1
    23     6    10    1
    24     6     9    1
    25     5     8    1
    26     5     2    1
    27    10    25    1
    28    11     9    1
    29    11    27    1
    30     8    23    1
    31     3     4    1
    32     3     2    1
    33     3    13    1
    34     1     9    1
    35     4     2    1
    36     4    18    1
    37     9    16    1
    38     2    17    1
    39    31    13    1
    40    33    13    1
    41    13    32    1
    42    16    39    1
    43    16    41    1
    44    16    40    1
@<TRIPOS>MOLECULE
11996452_8_run_10.pdb
 42 44 0 0 0
SMALL
GASTEIGER

@<TRIPOS>ATOM
      1    O       25.0990    0.7030    4.8550 O.3     2  LIG2       -0.3886
      2    C       25.2280    4.9310    3.3460 C.3     2  LIG2       -0.0289
      3    C       24.4110    6.1730    3.6860 C.3     2  LIG2       -0.0284
      4    C       23.7530    4.8160    3.7590 C.3     2  LIG2       -0.0319
      5    C       26.3270    4.3490    4.2810 C.3     2  LIG2       -0.0294
      6    C       26.2070    2.8590    4.7550 C.3     2  LIG2       -0.0090
      7    C       23.4310    4.0710    5.0660 C.3     2  LIG2       -0.0468
      8    C       27.7420    4.5010    3.6780 C.3     2  LIG2       -0.0404
      9    C       24.9460    2.0180    4.3390 C.3     2  LIG2        0.0664
     10    C       27.5780    2.2190    4.4400 C.3     2  LIG2       -0.0471
     11    C       23.6120    2.5420    4.9670 C.3     2  LIG2       -0.0237
     12    C       24.6710    7.0000    4.9670 C.3     2  LIG2       -0.0593
     13    C       24.0160    7.0740    2.5010 C.3     2  LIG2       -0.0593
     14    C       28.5630    3.3800    4.3170 C.3     2  LIG2       -0.0498
     15    C       28.3460    5.9030    3.8720 C.3     2  LIG2       -0.0621
     16    C       24.7860    1.7740    2.8140 C.3     2  LIG2       -0.0358
     17    H       25.4500    4.7520    2.2940 H       2  LIG2        0.0312
     18    H       23.0130    4.5970    2.9880 H       2  LIG2        0.0309
     19    H       26.3300    4.9260    5.2040 H       2  LIG2        0.0310
     20    H       26.1640    2.8930    5.8470 H       2  LIG2        0.0331
     21    H       24.0450    4.4300    5.8900 H       2  LIG2        0.0269
     22    H       22.4030    4.2910    5.3550 H       2  LIG2        0.0269
     23    H       27.7050    4.2940    2.6050 H       2  LIG2        0.0301
     24    H       27.8910    1.5240    5.2190 H       2  LIG2        0.0269
     25    H       27.5540    1.6580    3.5060 H       2  LIG2        0.0269
     26    H       23.5110    2.1690    5.9890 H       2  LIG2        0.0293
     27    H       22.7600    2.1270    4.4240 H       2  LIG2        0.0293
     28    H       23.7940    7.5940    5.2240 H       2  LIG2        0.0235
     29    H       25.5010    7.6890    4.8160 H       2  LIG2        0.0235
     30    H       24.9090    6.4080    5.8470 H       2  LIG2        0.0235
     31    H       23.1130    7.6430    2.7240 H       2  LIG2        0.0235
     32    H       23.8210    6.4990    1.5950 H       2  LIG2        0.0235
     33    H       24.8110    7.7830    2.2690 H       2  LIG2        0.0235
     34    H       29.4290    3.1080    3.7130 H       2  LIG2        0.0268
     35    H       28.9280    3.6770    5.3020 H       2  LIG2        0.0268
     36    H       28.4280    6.1640    4.9280 H       2  LIG2        0.0233
     37    H       27.7300    6.6630    3.3900 H       2  LIG2        0.0233
     38    H       29.3430    5.9640    3.4360 H       2  LIG2        0.0233
     39    H       24.5520    2.6760    2.2550 H       2  LIG2        0.0257
     40    H       23.9720    1.0780    2.6050 H       2  LIG2        0.0257
     41    H       25.6820    1.3460    2.3650 H       2  LIG2        0.0257
     42    H       25.2260    0.7650    5.8050 H       2  LIG2        0.2102
@<TRIPOS>BOND
     1    32    13    1
     2    39    16    1
     3    33    13    1
     4    17     2    1
     5    41    16    1
     6    13    31    1
     7    13     3    1
     8    23     8    1
     9    40    16    1
    10    16     9    1
    11    18     4    1
    12     2     3    1
    13     2     4    1
    14     2     5    1
    15    37    15    1
    16    38    15    1
    17    25    10    1
    18     8    15    1
    19     8     5    1
    20     8    14    1
    21     3     4    1
    22     3    12    1
    23    34    14    1
    24     4     7    1
    25    15    36    1
    26     5     6    1
    27     5    19    1
    28    14    10    1
    29    14    35    1
    30     9     6    1
    31     9     1    1
    32     9    11    1
    33    27    11    1
    34    10     6    1
    35    10    24    1
    36     6    20    1
    37    29    12    1
    38     1    42    1
    39    11     7    1
    40    11    26    1
    41    12    28    1
    42    12    30    1
    43     7    22    1
    44     7    21    1
@<TRIPOS>MOLECULE
11996452_8_run_4.pdb
 42 44 0 0 0
SMALL
GASTEIGER

@<TRIPOS>ATOM
      1    O       23.0380    2.9050    3.2620 O.3     2  LIG2       -0.3886
      2    C       27.1950    3.1080    4.9480 C.3     2  LIG2       -0.0289
      3    C       28.3900    2.1650    4.8620 C.3     2  LIG2       -0.0284
      4    C       26.9960    1.5880    4.8540 C.3     2  LIG2       -0.0319
      5    C       26.7320    4.0110    3.7680 C.3     2  LIG2       -0.0294
      6    C       25.2600    3.8790    3.2460 C.3     2  LIG2       -0.0090
      7    C       26.2870    1.0350    3.6060 C.3     2  LIG2       -0.0468
      8    C       26.9570    5.5120    4.0630 C.3     2  LIG2       -0.0404
      9    C       24.3160    2.7900    3.8730 C.3     2  LIG2        0.0664
     10    C       24.7050    5.3210    3.2240 C.3     2  LIG2       -0.0471
     11    C       24.7720    1.3230    3.5760 C.3     2  LIG2       -0.0237
     12    C       29.2890    2.0920    3.6050 C.3     2  LIG2       -0.0593
     13    C       29.2100    1.9850    6.1540 C.3     2  LIG2       -0.0593
     14    C       25.9250    6.2390    3.2000 C.3     2  LIG2       -0.0498
     15    C       28.4050    5.9750    3.8250 C.3     2  LIG2       -0.0621
     16    C       23.9950    2.9790    5.3810 C.3     2  LIG2       -0.0358
     17    H       26.9870    3.5630    5.9160 H       2  LIG2        0.0312
     18    H       26.6930    1.0470    5.7520 H       2  LIG2        0.0309
     19    H       27.3480    3.7790    2.9010 H       2  LIG2        0.0310
     20    H       25.3380    3.5970    2.1920 H       2  LIG2        0.0331
     21    H       26.7230    1.4330    2.6920 H       2  LIG2        0.0269
     22    H       26.4470   -0.0430    3.5560 H       2  LIG2        0.0269
     23    H       26.7020    5.7200    5.1050 H       2  LIG2        0.0301
     24    H       24.0670    5.4980    2.3580 H       2  LIG2        0.0269
     25    H       24.1040    5.5330    4.1070 H       2  LIG2        0.0269
     26    H       24.4370    1.0240    2.5800 H       2  LIG2        0.0293
     27    H       24.2750    0.6350    4.2640 H       2  LIG2        0.0293
     28    H       29.8310    1.1460    3.5760 H       2  LIG2        0.0235
     29    H       30.0270    2.8930    3.6150 H       2  LIG2        0.0235
     30    H       28.7530    2.1680    2.6620 H       2  LIG2        0.0235
     31    H       29.7240    1.0230    6.1620 H       2  LIG2        0.0235
     32    H       28.5840    2.0250    7.0460 H       2  LIG2        0.0235
     33    H       29.9630    2.7680    6.2510 H       2  LIG2        0.0235
     34    H       25.6880    7.2300    3.5880 H       2  LIG2        0.0268
     35    H       26.2900    6.3630    2.1780 H       2  LIG2        0.0268
     36    H       28.7160    5.8110    2.7930 H       2  LIG2        0.0233
     37    H       29.0990    5.4350    4.4700 H       2  LIG2        0.0233
     38    H       28.5170    7.0380    4.0410 H       2  LIG2        0.0233
     39    H       24.8530    2.8190    6.0270 H       2  LIG2        0.0257
     40    H       23.2350    2.2730    5.7190 H       2  LIG2        0.0257
     41    H       23.6120    3.9750    5.6030 H       2  LIG2        0.0257
     42    H       22.4560    2.2510    3.6560 H       2  LIG2        0.2102
@<TRIPOS>BOND
     1    35    14    1
     2    20     6    1
     3    24    10    1
     4    26    11    1
     5    30    12    1
     6    21     7    1
     7    36    15    1
     8    19     5    1
     9    14    10    1
    10    14    34    1
    11    14     8    1
    12    10     6    1
    13    10    25    1
    14     6     5    1
    15     6     9    1
    16     1    42    1
    17     1     9    1
    18    22     7    1
    19    28    12    1
    20    11     7    1
    21    11     9    1
    22    11    27    1
    23    12    29    1
    24    12     3    1
    25     7     4    1
    26     5     8    1
    27     5     2    1
    28    15    38    1
    29    15     8    1
    30    15    37    1
    31     9    16    1
    32     8    23    1
    33     4     3    1
    34     4     2    1
    35     4    18    1
    36     3     2    1
    37     3    13    1
    38     2    17    1
    39    16    41    1
    40    16    40    1
    41    16    39    1
    42    13    31    1
    43    13    33    1
    44    13    32    1
@<TRIPOS>MOLECULE
11996452_8_run_12.pdb
 42 44 0 0 0
SMALL
GASTEIGER

@<TRIPOS>ATOM
      1    O       25.8490    8.2050    3.0000 O.3     2  LIG2       -0.3886
      2    C       24.8850    4.2190    4.8290 C.3     2  LIG2       -0.0289
      3    C       23.7850    3.1980    4.5570 C.3     2  LIG2       -0.0284
      4    C       23.4930    4.6650    4.3600 C.3     2  LIG2       -0.0319
      5    C       26.1080    4.4280    3.8900 C.3     2  LIG2       -0.0294
      6    C       26.3750    5.8560    3.3000 C.3     2  LIG2       -0.0090
      7    C       23.3870    5.3580    2.9900 C.3     2  LIG2       -0.0468
      8    C       27.4310    3.9750    4.5500 C.3     2  LIG2       -0.0404
      9    C       25.3620    7.0180    3.6090 C.3     2  LIG2        0.0664
     10    C       27.8590    6.1540    3.6120 C.3     2  LIG2       -0.0471
     11    C       23.9470    6.7950    2.9790 C.3     2  LIG2       -0.0237
     12    C       23.8450    2.2300    3.3520 C.3     2  LIG2       -0.0593
     13    C       23.1600    2.5250    5.7940 C.3     2  LIG2       -0.0593
     14    C       28.5170    4.7980    3.8550 C.3     2  LIG2       -0.0498
     15    C       27.6630    2.4560    4.4830 C.3     2  LIG2       -0.0621
     16    C       25.2490    7.4180    5.1050 C.3     2  LIG2       -0.0358
     17    H       25.1320    4.4220    5.8710 H       2  LIG2        0.0312
     18    H       22.8220    5.1250    5.0870 H       2  LIG2        0.0309
     19    H       25.9770    3.7950    3.0140 H       2  LIG2        0.0310
     20    H       26.3380    5.7440    2.2130 H       2  LIG2        0.0331
     21    H       23.9010    4.7900    2.2170 H       2  LIG2        0.0269
     22    H       22.3400    5.3800    2.6840 H       2  LIG2        0.0269
     23    H       27.4330    4.2720    5.6020 H       2  LIG2        0.0301
     24    H       28.3480    6.6830    2.7930 H       2  LIG2        0.0269
     25    H       27.9650    6.7780    4.4980 H       2  LIG2        0.0269
     26    H       23.9570    7.0970    1.9290 H       2  LIG2        0.0293
     27    H       23.2210    7.4540    3.4600 H       2  LIG2        0.0293
     28    H       22.8490    1.8560    3.1120 H       2  LIG2        0.0235
     29    H       24.4720    1.3690    3.5830 H       2  LIG2        0.0235
     30    H       24.2360    2.6690    2.4390 H       2  LIG2        0.0235
     31    H       22.1460    2.1840    5.5840 H       2  LIG2        0.0235
     32    H       23.1050    3.2030    6.6460 H       2  LIG2        0.0235
     33    H       23.7470    1.6600    6.1050 H       2  LIG2        0.0235
     34    H       29.4160    4.8930    4.4650 H       2  LIG2        0.0268
     35    H       28.8080    4.3390    2.9080 H       2  LIG2        0.0268
     36    H       27.6910    2.0970    3.4530 H       2  LIG2        0.0233
     37    H       26.8690    1.9160    5.0010 H       2  LIG2        0.0233
     38    H       28.6070    2.1820    4.9560 H       2  LIG2        0.0233
     39    H       24.7870    6.6530    5.7230 H       2  LIG2        0.0257
     40    H       24.6350    8.3110    5.2330 H       2  LIG2        0.0257
     41    H       26.2180    7.6430    5.5500 H       2  LIG2        0.0257
     42    H       25.8870    8.0630    2.0510 H       2  LIG2        0.2102
@<TRIPOS>BOND
     1    26    11    1
     2    42     1    1
     3    20     6    1
     4    21     7    1
     5    30    12    1
     6    22     7    1
     7    24    10    1
     8    35    14    1
     9    11     7    1
    10    11    27    1
    11    11     9    1
    12     7     4    1
    13     1     9    1
    14    19     5    1
    15    28    12    1
    16     6     9    1
    17     6    10    1
    18     6     5    1
    19    12    29    1
    20    12     3    1
    21    36    15    1
    22     9    16    1
    23    10    14    1
    24    10    25    1
    25    14    34    1
    26    14     8    1
    27     5     8    1
    28     5     2    1
    29     4     3    1
    30     4     2    1
    31     4    18    1
    32    15     8    1
    33    15    38    1
    34    15    37    1
    35     8    23    1
    36     3     2    1
    37     3    13    1
    38     2    17    1
    39    16    40    1
    40    16    41    1
    41    16    39    1
    42    31    13    1
    43    13    33    1
    44    13    32    1
@<TRIPOS>MOLECULE
11996452_8_run_8.pdb
 42 44 0 0 0
SMALL
GASTEIGER

@<TRIPOS>ATOM
      1    O       28.2770   -2.2880    4.4410 O.3     2  LIG2       -0.3886
      2    C       27.5580    2.1070    3.8620 C.3     2  LIG2       -0.0289
      3    C       26.2970    2.9630    3.9250 C.3     2  LIG2       -0.0284
      4    C       26.1940    1.5340    3.4500 C.3     2  LIG2       -0.0319
      5    C       28.2700    1.5410    5.1240 C.3     2  LIG2       -0.0294
      6    C       28.4870   -0.0070    5.2420 C.3     2  LIG2       -0.0090
      7    C       25.6220    0.3750    4.2850 C.3     2  LIG2       -0.0468
      8    C       29.6540    2.1920    5.3500 C.3     2  LIG2       -0.0404
      9    C       27.9130   -0.9520    4.1240 C.3     2  LIG2        0.0664
     10    C       29.9860   -0.1850    5.5710 C.3     2  LIG2       -0.0471
     11    C       26.3500   -0.9660    4.0620 C.3     2  LIG2       -0.0237
     12    C       25.6700    3.4010    5.2700 C.3     2  LIG2       -0.0593
     13    C       26.1670    4.0620    2.8550 C.3     2  LIG2       -0.0593
     14    C       30.4520    1.1530    6.1400 C.3     2  LIG2       -0.0498
     15    C       29.5810    3.5700    6.0320 C.3     2  LIG2       -0.0621
     16    C       28.5250   -0.7530    2.7100 C.3     2  LIG2       -0.0358
     17    H       28.2600    2.3110    3.0540 H       2  LIG2        0.0312
     18    H       25.9890    1.3930    2.3870 H       2  LIG2        0.0309
     19    H       27.6720    1.7970    5.9970 H       2  LIG2        0.0310
     20    H       27.9660   -0.3160    6.1530 H       2  LIG2        0.0331
     21    H       25.6500    0.6000    5.3490 H       2  LIG2        0.0269
     22    H       24.5650    0.2530    4.0440 H       2  LIG2        0.0269
     23    H       30.1590    2.3170    4.3890 H       2  LIG2        0.0301
     24    H       30.1530   -0.9910    6.2860 H       2  LIG2        0.0269
     25    H       30.5660   -0.4280    4.6810 H       2  LIG2        0.0269
     26    H       25.9540   -1.6440    4.8220 H       2  LIG2        0.0293
     27    H       26.0220   -1.3840    3.1070 H       2  LIG2        0.0293
     28    H       24.6220    3.6690    5.1340 H       2  LIG2        0.0235
     29    H       26.1850    4.2760    5.6650 H       2  LIG2        0.0235
     30    H       25.6950    2.6430    6.0480 H       2  LIG2        0.0235
     31    H       25.1210    4.3120    2.6740 H       2  LIG2        0.0235
     32    H       26.5980    3.7600    1.9000 H       2  LIG2        0.0235
     33    H       26.6800    4.9730    3.1670 H       2  LIG2        0.0235
     34    H       31.5280    1.2850    6.0240 H       2  LIG2        0.0268
     35    H       30.2250    1.2150    7.2060 H       2  LIG2        0.0268
     36    H       29.1020    3.5110    7.0100 H       2  LIG2        0.0233
     37    H       29.0120    4.2760    5.4260 H       2  LIG2        0.0233
     38    H       30.5770    3.9900    6.1750 H       2  LIG2        0.0233
     39    H       28.2570    0.1950    2.2530 H       2  LIG2        0.0257
     40    H       28.1830   -1.5230    2.0160 H       2  LIG2        0.0257
     41    H       29.6140   -0.8060    2.7170 H       2  LIG2        0.0257
     42    H       27.8670   -2.5210    5.2780 H       2  LIG2        0.2102
@<TRIPOS>BOND
     1    32    13    1
     2    40    16    1
     3    39    16    1
     4    18     4    1
     5    31    13    1
     6    16    41    1
     7    16     9    1
     8    13    33    1
     9    13     3    1
    10    17     2    1
    11    27    11    1
    12     4     2    1
    13     4     3    1
    14     4     7    1
    15     2     3    1
    16     2     5    1
    17     3    12    1
    18    22     7    1
    19    11     9    1
    20    11     7    1
    21    11    26    1
    22     9     1    1
    23     9     6    1
    24     7    21    1
    25    23     8    1
    26     1    42    1
    27    25    10    1
    28     5     6    1
    29     5     8    1
    30     5    19    1
    31    28    12    1
    32     6    10    1
    33     6    20    1
    34    12    29    1
    35    12    30    1
    36     8    15    1
    37     8    14    1
    38    37    15    1
    39    10    14    1
    40    10    24    1
    41    34    14    1
    42    15    38    1
    43    15    36    1
    44    14    35    1
