@<TRIPOS>MOLECULE
11996452_2_run_3.pdb
 42 44 0 0 0
SMALL
GASTEIGER

@<TRIPOS>ATOM
      1    O       24.6050    1.1180    4.5640 O.3     2  LIG2       -0.3886
      2    C       29.1170    1.5810    3.8640 C.3     2  LIG2       -0.0289
      3    C       29.5980    2.2650    5.1320 C.3     2  LIG2       -0.0284
      4    C       28.5830    2.9760    4.2570 C.3     2  LIG2       -0.0319
      5    C       28.2270    0.3000    3.7810 C.3     2  LIG2       -0.0294
      6    C       26.8010    0.2540    4.3840 C.3     2  LIG2       -0.0090
      7    C       27.1030    3.1840    4.6460 C.3     2  LIG2       -0.0468
      8    C       28.9380   -0.9630    4.3190 C.3     2  LIG2       -0.0404
      9    C       25.7200    1.1510    3.6860 C.3     2  LIG2        0.0664
     10    C       26.4920   -1.2560    4.4320 C.3     2  LIG2       -0.0471
     11    C       26.1280    2.6490    3.5790 C.3     2  LIG2       -0.0237
     12    C       29.2390    1.7720    6.5520 C.3     2  LIG2       -0.0593
     13    C       31.0390    2.8100    5.0930 C.3     2  LIG2       -0.0593
     14    C       27.8260   -1.9550    4.7120 C.3     2  LIG2       -0.0498
     15    C       29.9800   -1.5530    3.3510 C.3     2  LIG2       -0.0621
     16    C       25.2310    0.6510    2.3060 C.3     2  LIG2       -0.0358
     17    H       29.8400    1.5600    3.0470 H       2  LIG2        0.0312
     18    H       28.9620    3.8430    3.7140 H       2  LIG2        0.0309
     19    H       28.0740    0.1360    2.7130 H       2  LIG2        0.0310
     20    H       26.8530    0.5540    5.4260 H       2  LIG2        0.0331
     21    H       26.8570    2.8010    5.6350 H       2  LIG2        0.0269
     22    H       26.9430    4.2590    4.7240 H       2  LIG2        0.0269
     23    H       29.4660   -0.7020    5.2370 H       2  LIG2        0.0301
     24    H       25.7520   -1.4950    5.1980 H       2  LIG2        0.0269
     25    H       26.0990   -1.6190    3.4840 H       2  LIG2        0.0269
     26    H       25.2360    3.2780    3.5640 H       2  LIG2        0.0293
     27    H       26.5870    2.8260    2.6040 H       2  LIG2        0.0293
     28    H       29.3410    2.5850    7.2710 H       2  LIG2        0.0235
     29    H       29.9140    0.9760    6.8670 H       2  LIG2        0.0235
     30    H       28.2320    1.3930    6.6680 H       2  LIG2        0.0235
     31    H       31.1680    3.6340    5.7950 H       2  LIG2        0.0235
     32    H       31.3140    3.1820    4.1050 H       2  LIG2        0.0235
     33    H       31.7580    2.0320    5.3550 H       2  LIG2        0.0235
     34    H       27.8920   -2.8970    4.1680 H       2  LIG2        0.0268
     35    H       27.9030   -2.1990    5.7720 H       2  LIG2        0.0268
     36    H       29.5220   -1.8560    2.4090 H       2  LIG2        0.0233
     37    H       30.4640   -2.4290    3.7820 H       2  LIG2        0.0233
     38    H       30.7620   -0.8270    3.1220 H       2  LIG2        0.0233
     39    H       26.0550    0.5560    1.5980 H       2  LIG2        0.0257
     40    H       24.5090    1.3410    1.8680 H       2  LIG2        0.0257
     41    H       24.7320   -0.3160    2.3630 H       2  LIG2        0.0257
     42    H       24.8930    1.4050    5.4330 H       2  LIG2        0.2102
@<TRIPOS>BOND
     1    39    16    1
     2    40    16    1
     3    16    41    1
     4    16     9    1
     5    36    15    1
     6    27    11    1
     7    19     5    1
     8    17     2    1
     9    38    15    1
    10    15    37    1
    11    15     8    1
    12    25    10    1
    13    26    11    1
    14    11     9    1
    15    11     7    1
    16     9     6    1
    17     9     1    1
    18    18     4    1
    19     5     2    1
    20     5     8    1
    21     5     6    1
    22     2     4    1
    23     2     3    1
    24    32    13    1
    25    34    14    1
    26     4     7    1
    27     4     3    1
    28     8    14    1
    29     8    23    1
    30     6    10    1
    31     6    20    1
    32    10    14    1
    33    10    24    1
    34     1    42    1
    35     7    22    1
    36     7    21    1
    37    14    35    1
    38    13     3    1
    39    13    33    1
    40    13    31    1
    41     3    12    1
    42    12    30    1
    43    12    29    1
    44    12    28    1
@<TRIPOS>MOLECULE
11996452_2_run_22.pdb
 42 44 0 0 0
SMALL
GASTEIGER

@<TRIPOS>ATOM
      1    O       26.0990    3.5580    2.7020 O.3     2  LIG2       -0.3886
      2    C       27.6120   -0.1300    4.9770 C.3     2  LIG2       -0.0289
      3    C       28.0530   -1.0680    3.8670 C.3     2  LIG2       -0.0284
      4    C       26.5990   -0.6400    3.9280 C.3     2  LIG2       -0.0319
      5    C       28.0160    1.3710    5.1400 C.3     2  LIG2       -0.0294
      6    C       27.6730    2.4320    4.0640 C.3     2  LIG2       -0.0090
      7    C       25.9400    0.3270    2.9200 C.3     2  LIG2       -0.0468
      8    C       29.5220    1.5610    5.4320 C.3     2  LIG2       -0.0404
      9    C       26.1530    2.7750    3.8840 C.3     2  LIG2        0.0664
     10    C       28.5890    3.6140    4.4370 C.3     2  LIG2       -0.0471
     11    C       25.2620    1.5290    3.6060 C.3     2  LIG2       -0.0237
     12    C       28.9750   -0.6350    2.7050 C.3     2  LIG2       -0.0593
     13    C       28.3610   -2.5150    4.2970 C.3     2  LIG2       -0.0593
     14    C       29.8720    2.9970    5.0010 C.3     2  LIG2       -0.0498
     15    C       29.9210    1.2350    6.8840 C.3     2  LIG2       -0.0621
     16    C       25.5210    3.6150    5.0190 C.3     2  LIG2       -0.0358
     17    H       27.5440   -0.5840    5.9660 H       2  LIG2        0.0312
     18    H       25.8960   -1.4180    4.2300 H       2  LIG2        0.0309
     19    H       27.4840    1.7080    6.0310 H       2  LIG2        0.0310
     20    H       28.0480    2.0900    3.1050 H       2  LIG2        0.0331
     21    H       26.6120    0.6490    2.1270 H       2  LIG2        0.0269
     22    H       25.1610   -0.2360    2.4040 H       2  LIG2        0.0269
     23    H       30.0910    0.8910    4.7860 H       2  LIG2        0.0301
     24    H       28.8010    4.2510    3.5760 H       2  LIG2        0.0269
     25    H       28.1400    4.2480    5.2010 H       2  LIG2        0.0269
     26    H       24.3840    1.8210    3.0260 H       2  LIG2        0.0293
     27    H       24.8430    1.1700    4.5480 H       2  LIG2        0.0293
     28    H       28.8490   -1.3030    1.8530 H       2  LIG2        0.0235
     29    H       30.0230   -0.6870    3.0030 H       2  LIG2        0.0235
     30    H       28.8070    0.3650    2.3300 H       2  LIG2        0.0235
     31    H       28.2300   -3.2090    3.4660 H       2  LIG2        0.0235
     32    H       27.7110   -2.8540    5.1050 H       2  LIG2        0.0235
     33    H       29.3890   -2.6070    4.6510 H       2  LIG2        0.0235
     34    H       30.2640    3.5990    5.8220 H       2  LIG2        0.0268
     35    H       30.6450    2.9770    4.2310 H       2  LIG2        0.0268
     36    H       29.4030    1.8810    7.5940 H       2  LIG2        0.0233
     37    H       30.9920    1.3670    7.0350 H       2  LIG2        0.0233
     38    H       29.6810    0.2010    7.1370 H       2  LIG2        0.0233
     39    H       25.6110    3.1170    5.9850 H       2  LIG2        0.0257
     40    H       24.4580    3.7840    4.8420 H       2  LIG2        0.0257
     41    H       25.9750    4.6010    5.1120 H       2  LIG2        0.0257
     42    H       26.4950    4.4130    2.8850 H       2  LIG2        0.2102
@<TRIPOS>BOND
     1    28    12    1
     2    21     7    1
     3    30    12    1
     4    22     7    1
     5     1    42    1
     6     1     9    1
     7    12    29    1
     8    12     3    1
     9     7    11    1
    10     7     4    1
    11    26    11    1
    12    20     6    1
    13    31    13    1
    14    24    10    1
    15    11     9    1
    16    11    27    1
    17     3     4    1
    18     3    13    1
    19     3     2    1
    20     9     6    1
    21     9    16    1
    22     4    18    1
    23     4     2    1
    24     6    10    1
    25     6     5    1
    26    35    14    1
    27    13    33    1
    28    13    32    1
    29    10    14    1
    30    10    25    1
    31    23     8    1
    32    40    16    1
    33     2     5    1
    34     2    17    1
    35    14     8    1
    36    14    34    1
    37    16    41    1
    38    16    39    1
    39     5     8    1
    40     5    19    1
    41     8    15    1
    42    15    37    1
    43    15    38    1
    44    15    36    1
@<TRIPOS>MOLECULE
11996452_2_run_19.pdb
 42 44 0 0 0
SMALL
GASTEIGER

@<TRIPOS>ATOM
      1    O       28.6000    3.5390    6.3550 O.3     2  LIG2       -0.3886
      2    C       28.2100    0.0730    3.3720 C.3     2  LIG2       -0.0289
      3    C       28.3760   -1.1590    4.2440 C.3     2  LIG2       -0.0284
      4    C       29.5180   -0.1640    4.1590 C.3     2  LIG2       -0.0319
      5    C       27.2420    1.2710    3.6320 C.3     2  LIG2       -0.0294
      6    C       27.3490    2.1490    4.9040 C.3     2  LIG2       -0.0090
      7    C       29.9350    0.7730    5.3130 C.3     2  LIG2       -0.0468
      8    C       25.7510    0.8730    3.5380 C.3     2  LIG2       -0.0404
      9    C       28.6290    3.0490    5.0240 C.3     2  LIG2        0.0664
     10    C       25.9990    2.8930    4.9290 C.3     2  LIG2       -0.0471
     11    C       29.9620    2.2560    4.8940 C.3     2  LIG2       -0.0237
     12    C       27.5940   -1.3810    5.5580 C.3     2  LIG2       -0.0593
     13    C       28.5680   -2.4900    3.4930 C.3     2  LIG2       -0.0593
     14    C       24.9670    1.9210    4.3490 C.3     2  LIG2       -0.0498
     15    C       25.2420    0.6990    2.0950 C.3     2  LIG2       -0.0621
     16    C       28.6670    4.2770    4.0840 C.3     2  LIG2       -0.0358
     17    H       28.2590   -0.1110    2.2980 H       2  LIG2        0.0312
     18    H       30.3940   -0.5060    3.6060 H       2  LIG2        0.0309
     19    H       27.4280    1.9640    2.8100 H       2  LIG2        0.0310
     20    H       27.3200    1.5040    5.7760 H       2  LIG2        0.0331
     21    H       29.3520    0.6290    6.2210 H       2  LIG2        0.0269
     22    H       30.9510    0.4960    5.5950 H       2  LIG2        0.0269
     23    H       25.6130   -0.0840    4.0440 H       2  LIG2        0.0301
     24    H       25.7260    3.2050    5.9380 H       2  LIG2        0.0269
     25    H       26.0210    3.7900    4.3120 H       2  LIG2        0.0269
     26    H       30.7540    2.7680    5.4450 H       2  LIG2        0.0293
     27    H       30.3010    2.2930    3.8560 H       2  LIG2        0.0293
     28    H       28.1220   -2.0880    6.1980 H       2  LIG2        0.0235
     29    H       26.6100   -1.8040    5.3550 H       2  LIG2        0.0235
     30    H       27.4350   -0.4950    6.1570 H       2  LIG2        0.0235
     31    H       29.1070   -3.2140    4.1050 H       2  LIG2        0.0235
     32    H       29.1340   -2.3660    2.5690 H       2  LIG2        0.0235
     33    H       27.6060   -2.9300    3.2240 H       2  LIG2        0.0235
     34    H       24.2290    2.4530    3.7470 H       2  LIG2        0.0268
     35    H       24.4190    1.4340    5.1570 H       2  LIG2        0.0268
     36    H       25.3320    1.6250    1.5260 H       2  LIG2        0.0233
     37    H       24.1930    0.4020    2.0820 H       2  LIG2        0.0233
     38    H       25.8060   -0.0720    1.5670 H       2  LIG2        0.0233
     39    H       28.5950    3.9840    3.0360 H       2  LIG2        0.0257
     40    H       29.5990    4.8340    4.1980 H       2  LIG2        0.0257
     41    H       27.8630    4.9840    4.2860 H       2  LIG2        0.0257
     42    H       29.3490    4.1260    6.4790 H       2  LIG2        0.2102
@<TRIPOS>BOND
     1    36    15    1
     2    38    15    1
     3    37    15    1
     4    15     8    1
     5    17     2    1
     6    32    13    1
     7    19     5    1
     8    39    16    1
     9    33    13    1
    10     2     5    1
    11     2     4    1
    12     2     3    1
    13    13    31    1
    14    13     3    1
    15     8     5    1
    16     8    23    1
    17     8    14    1
    18    18     4    1
    19     5     6    1
    20    34    14    1
    21    27    11    1
    22    16    40    1
    23    16    41    1
    24    16     9    1
    25     4     3    1
    26     4     7    1
    27     3    12    1
    28    25    10    1
    29    14    10    1
    30    14    35    1
    31    11     9    1
    32    11     7    1
    33    11    26    1
    34     6    10    1
    35     6     9    1
    36     6    20    1
    37    10    24    1
    38     9     1    1
    39     7    22    1
    40     7    21    1
    41    29    12    1
    42    12    30    1
    43    12    28    1
    44     1    42    1
@<TRIPOS>MOLECULE
11996452_2_run_13.pdb
 42 44 0 0 0
SMALL
GASTEIGER

@<TRIPOS>ATOM
      1    O       30.6850    2.3930    4.2050 O.3     2  LIG2       -0.3886
      2    C       26.3980    0.8630    4.7900 C.3     2  LIG2       -0.0289
      3    C       25.6030    1.6490    3.7610 C.3     2  LIG2       -0.0284
      4    C       26.3320    2.4040    4.8570 C.3     2  LIG2       -0.0319
      5    C       27.7120    0.0580    4.5300 C.3     2  LIG2       -0.0294
      6    C       29.0010    0.7410    4.0110 C.3     2  LIG2       -0.0090
      7    C       27.5900    3.2680    4.6210 C.3     2  LIG2       -0.0468
      8    C       27.4970   -1.1630    3.6050 C.3     2  LIG2       -0.0404
      9    C       29.7070    1.7370    4.9970 C.3     2  LIG2        0.0664
     10    C       29.8560   -0.4480    3.5300 C.3     2  LIG2       -0.0471
     11    C       28.7690    2.8600    5.5260 C.3     2  LIG2       -0.0237
     12    C       26.0200    1.7730    2.2790 C.3     2  LIG2       -0.0593
     13    C       24.0700    1.5620    3.8910 C.3     2  LIG2       -0.0593
     14    C       28.8710   -1.4890    2.9890 C.3     2  LIG2       -0.0498
     15    C       26.8300   -2.3630    4.3020 C.3     2  LIG2       -0.0621
     16    C       30.4470    1.0810    6.1870 C.3     2  LIG2       -0.0358
     17    H       25.7980    0.3270    5.5260 H       2  LIG2        0.0312
     18    H       25.6920    2.8580    5.6150 H       2  LIG2        0.0309
     19    H       27.9910   -0.3410    5.5070 H       2  LIG2        0.0310
     20    H       28.7640    1.2900    3.1050 H       2  LIG2        0.0331
     21    H       27.8920    3.3180    3.5760 H       2  LIG2        0.0269
     22    H       27.3230    4.2940    4.8760 H       2  LIG2        0.0269
     23    H       26.8460   -0.8670    2.7820 H       2  LIG2        0.0301
     24    H       30.5740   -0.1480    2.7650 H       2  LIG2        0.0269
     25    H       30.4240   -0.8930    4.3450 H       2  LIG2        0.0269
     26    H       29.3540    3.7490    5.7710 H       2  LIG2        0.0293
     27    H       28.3480    2.5520    6.4860 H       2  LIG2        0.0293
     28    H       25.5660    2.6570    1.8300 H       2  LIG2        0.0235
     29    H       25.6780    0.9100    1.7080 H       2  LIG2        0.0235
     30    H       27.0840    1.8610    2.1040 H       2  LIG2        0.0235
     31    H       23.5880    2.4410    3.4610 H       2  LIG2        0.0235
     32    H       23.7460    1.4920    4.9300 H       2  LIG2        0.0235
     33    H       23.6840    0.6820    3.3730 H       2  LIG2        0.0235
     34    H       29.2070   -2.5000    3.2230 H       2  LIG2        0.0268
     35    H       28.8170   -1.4210    1.9020 H       2  LIG2        0.0268
     36    H       27.4350   -2.7300    5.1310 H       2  LIG2        0.0233
     37    H       26.6850   -3.1890    3.6050 H       2  LIG2        0.0233
     38    H       25.8490   -2.0950    4.6980 H       2  LIG2        0.0233
     39    H       29.7730    0.4740    6.7930 H       2  LIG2        0.0257
     40    H       30.8820    1.8340    6.8460 H       2  LIG2        0.0257
     41    H       31.2700    0.4420    5.8680 H       2  LIG2        0.0257
     42    H       31.3020    1.7350    3.8760 H       2  LIG2        0.2102
@<TRIPOS>BOND
     1    29    12    1
     2    28    12    1
     3    35    14    1
     4    30    12    1
     5    12     3    1
     6    24    10    1
     7    23     8    1
     8    14    34    1
     9    14    10    1
    10    14     8    1
    11    20     6    1
    12    33    13    1
    13    31    13    1
    14    10     6    1
    15    10    25    1
    16    21     7    1
    17     8    15    1
    18     8     5    1
    19    37    15    1
    20     3    13    1
    21     3     2    1
    22     3     4    1
    23    42     1    1
    24    13    32    1
    25     6     5    1
    26     6     9    1
    27     1     9    1
    28    15    38    1
    29    15    36    1
    30     5     2    1
    31     5    19    1
    32     7     4    1
    33     7    22    1
    34     7    11    1
    35     2     4    1
    36     2    17    1
    37     4    18    1
    38     9    11    1
    39     9    16    1
    40    11    26    1
    41    11    27    1
    42    41    16    1
    43    16    39    1
    44    16    40    1
@<TRIPOS>MOLECULE
11996452_2_run_18.pdb
 42 44 0 0 0
SMALL
GASTEIGER

@<TRIPOS>ATOM
      1    O       28.3490   -2.0080    2.6920 O.3     2  LIG2       -0.3886
      2    C       28.2010    1.5000    5.6480 C.3     2  LIG2       -0.0289
      3    C       29.4580    2.2860    5.3190 C.3     2  LIG2       -0.0284
      4    C       29.5950    0.8530    5.7970 C.3     2  LIG2       -0.0319
      5    C       27.1180    1.0120    4.6320 C.3     2  LIG2       -0.0294
      6    C       27.4610    0.0410    3.4750 C.3     2  LIG2       -0.0090
      7    C       30.0310   -0.3210    4.8920 C.3     2  LIG2       -0.0468
      8    C       26.3450    2.1770    3.9700 C.3     2  LIG2       -0.0404
      9    C       27.8530   -1.4210    3.8850 C.3     2  LIG2        0.0664
     10    C       26.2430    0.1730    2.5380 C.3     2  LIG2       -0.0471
     11    C       29.0250   -1.4880    4.9070 C.3     2  LIG2       -0.0237
     12    C       29.8490    2.7020    3.8840 C.3     2  LIG2       -0.0593
     13    C       29.8420    3.3850    6.3290 C.3     2  LIG2       -0.0593
     14    C       25.7760    1.6270    2.6490 C.3     2  LIG2       -0.0498
     15    C       25.2840    2.8180    4.8830 C.3     2  LIG2       -0.0621
     16    C       26.6860   -2.3080    4.3810 C.3     2  LIG2       -0.0358
     17    H       27.7060    1.7860    6.5770 H       2  LIG2        0.0312
     18    H       30.0010    0.7320    6.8020 H       2  LIG2        0.0309
     19    H       26.3940    0.4660    5.2370 H       2  LIG2        0.0310
     20    H       28.2870    0.4550    2.9050 H       2  LIG2        0.0331
     21    H       30.2700   -0.0170    3.8750 H       2  LIG2        0.0269
     22    H       30.9730   -0.6970    5.2920 H       2  LIG2        0.0269
     23    H       27.0560    2.9610    3.7050 H       2  LIG2        0.0301
     24    H       26.4950   -0.0840    1.5070 H       2  LIG2        0.0269
     25    H       25.4280   -0.4810    2.8410 H       2  LIG2        0.0269
     26    H       29.5680   -2.4280    4.7900 H       2  LIG2        0.0293
     27    H       28.6150   -1.5490    5.9180 H       2  LIG2        0.0293
     28    H       30.9210    2.8930    3.8240 H       2  LIG2        0.0235
     29    H       29.3410    3.6230    3.5960 H       2  LIG2        0.0235
     30    H       29.6310    1.9720    3.1160 H       2  LIG2        0.0235
     31    H       30.9130    3.5880    6.3010 H       2  LIG2        0.0235
     32    H       29.5940    3.1100    7.3550 H       2  LIG2        0.0235
     33    H       29.3190    4.3170    6.1100 H       2  LIG2        0.0235
     34    H       24.6880    1.6900    2.6020 H       2  LIG2        0.0268
     35    H       26.1590    2.2070    1.8090 H       2  LIG2        0.0268
     36    H       24.5230    2.0960    5.1790 H       2  LIG2        0.0233
     37    H       24.7800    3.6430    4.3790 H       2  LIG2        0.0233
     38    H       25.7350    3.2190    5.7930 H       2  LIG2        0.0233
     39    H       26.1880   -1.8690    5.2460 H       2  LIG2        0.0257
     40    H       27.0400   -3.2960    4.6800 H       2  LIG2        0.0257
     41    H       25.9310   -2.4740    3.6130 H       2  LIG2        0.0257
     42    H       27.6080   -2.1760    2.1050 H       2  LIG2        0.2102
@<TRIPOS>BOND
     1    24    10    1
     2    35    14    1
     3    42     1    1
     4    10    14    1
     5    10    25    1
     6    10     6    1
     7    34    14    1
     8    14     8    1
     9     1     9    1
    10    20     6    1
    11    30    12    1
    12     6     9    1
    13     6     5    1
    14    29    12    1
    15    41    16    1
    16    23     8    1
    17    28    12    1
    18    21     7    1
    19    12     3    1
    20     9    16    1
    21     9    11    1
    22     8     5    1
    23     8    15    1
    24    37    15    1
    25    16    40    1
    26    16    39    1
    27     5    19    1
    28     5     2    1
    29    26    11    1
    30    15    36    1
    31    15    38    1
    32     7    11    1
    33     7    22    1
    34     7     4    1
    35    11    27    1
    36     3     2    1
    37     3     4    1
    38     3    13    1
    39     2     4    1
    40     2    17    1
    41     4    18    1
    42    33    13    1
    43    31    13    1
    44    13    32    1
@<TRIPOS>MOLECULE
11996452_2_run_24.pdb
 42 44 0 0 0
SMALL
GASTEIGER

@<TRIPOS>ATOM
      1    O       26.5960   -1.5130    4.6010 O.3     2  LIG2       -0.3886
      2    C       27.3810    2.8770    3.5150 C.3     2  LIG2       -0.0289
      3    C       26.1330    3.5870    4.0090 C.3     2  LIG2       -0.0284
      4    C       25.9930    2.5190    2.9410 C.3     2  LIG2       -0.0319
      5    C       28.2690    1.8830    4.3310 C.3     2  LIG2       -0.0294
      6    C       27.7020    0.5580    4.9000 C.3     2  LIG2       -0.0090
      7    C       25.3620    1.1310    3.1850 C.3     2  LIG2       -0.0468
      8    C       28.9940    2.5590    5.5180 C.3     2  LIG2       -0.0404
      9    C       27.2990   -0.5350    3.8500 C.3     2  LIG2        0.0664
     10    C       28.7690    0.1390    5.9310 C.3     2  LIG2       -0.0471
     11    C       26.2940   -0.0250    2.7750 C.3     2  LIG2       -0.0237
     12    C       25.5510    3.3940    5.4270 C.3     2  LIG2       -0.0593
     13    C       25.9660    5.0470    3.5460 C.3     2  LIG2       -0.0593
     14    C       29.3250    1.4380    6.5210 C.3     2  LIG2       -0.0498
     15    C       30.2140    3.4010    5.1050 C.3     2  LIG2       -0.0621
     16    C       28.4780   -1.2530    3.1520 C.3     2  LIG2       -0.0358
     17    H       28.0260    3.4720    2.8680 H       2  LIG2        0.0312
     18    H       25.7390    2.8860    1.9450 H       2  LIG2        0.0309
     19    H       29.0460    1.5680    3.6340 H       2  LIG2        0.0310
     20    H       26.8220    0.7820    5.4950 H       2  LIG2        0.0331
     21    H       24.9870    0.9980    4.1980 H       2  LIG2        0.0269
     22    H       24.4730    1.0710    2.5570 H       2  LIG2        0.0269
     23    H       28.2940    3.2310    6.0180 H       2  LIG2        0.0301
     24    H       28.3500   -0.5020    6.7100 H       2  LIG2        0.0269
     25    H       29.5850   -0.4130    5.4670 H       2  LIG2        0.0269
     26    H       25.6900   -0.8570    2.4070 H       2  LIG2        0.0293
     27    H       26.8490    0.3030    1.8940 H       2  LIG2        0.0293
     28    H       24.4940    3.6630    5.4430 H       2  LIG2        0.0235
     29    H       26.0580    4.0410    6.1440 H       2  LIG2        0.0235
     30    H       25.6100    2.3870    5.8180 H       2  LIG2        0.0235
     31    H       24.9160    5.3410    3.5380 H       2  LIG2        0.0235
     32    H       26.3530    5.2090    2.5380 H       2  LIG2        0.0235
     33    H       26.5000    5.7310    4.2080 H       2  LIG2        0.0235
     34    H       30.3950    1.3500    6.7140 H       2  LIG2        0.0268
     35    H       28.8500    1.6450    7.4810 H       2  LIG2        0.0268
     36    H       30.9710    2.7910    4.6120 H       2  LIG2        0.0233
     37    H       30.6790    3.8690    5.9730 H       2  LIG2        0.0233
     38    H       29.9290    4.2000    4.4180 H       2  LIG2        0.0233
     39    H       29.1250   -0.5480    2.6290 H       2  LIG2        0.0257
     40    H       28.1220   -1.9720    2.4120 H       2  LIG2        0.0257
     41    H       29.0980   -1.8150    3.8500 H       2  LIG2        0.0257
     42    H       27.2210   -1.9620    5.1750 H       2  LIG2        0.2102
@<TRIPOS>BOND
     1    27    11    1
     2    18     4    1
     3    26    11    1
     4    40    16    1
     5    32    13    1
     6    22     7    1
     7    39    16    1
     8    11     7    1
     9    11     9    1
    10    17     2    1
    11     4     7    1
    12     4     2    1
    13     4     3    1
    14    16    41    1
    15    16     9    1
    16     7    21    1
    17     2     3    1
    18     2     5    1
    19    31    13    1
    20    13     3    1
    21    13    33    1
    22    19     5    1
    23     9     1    1
    24     9     6    1
    25     3    12    1
    26     5     6    1
    27     5     8    1
    28    38    15    1
    29     1    42    1
    30    36    15    1
    31     6    20    1
    32     6    10    1
    33    15     8    1
    34    15    37    1
    35    12    28    1
    36    12    30    1
    37    12    29    1
    38    25    10    1
    39     8    23    1
    40     8    14    1
    41    10    14    1
    42    10    24    1
    43    14    34    1
    44    14    35    1
@<TRIPOS>MOLECULE
11996452_2_run_20.pdb
 42 44 0 0 0
SMALL
GASTEIGER

@<TRIPOS>ATOM
      1    O       25.5990    6.8420    5.1050 O.3     2  LIG2       -0.3886
      2    C       27.0420    2.8740    3.3050 C.3     2  LIG2       -0.0289
      3    C       28.0840    2.3970    4.3020 C.3     2  LIG2       -0.0284
      4    C       28.3040    3.7180    3.5880 C.3     2  LIG2       -0.0319
      5    C       25.5880    3.3430    3.6360 C.3     2  LIG2       -0.0294
      6    C       25.3100    4.5580    4.5550 C.3     2  LIG2       -0.0090
      7    C       28.2040    5.0980    4.2740 C.3     2  LIG2       -0.0468
      8    C       24.6980    2.2040    4.1850 C.3     2  LIG2       -0.0404
      9    C       25.7260    5.9640    3.9970 C.3     2  LIG2        0.0664
     10    C       23.8190    4.3900    4.9120 C.3     2  LIG2       -0.0471
     11    C       27.2180    6.0450    3.5620 C.3     2  LIG2       -0.0237
     12    C       27.8370    2.3330    5.8250 C.3     2  LIG2       -0.0593
     13    C       28.9590    1.2150    3.8410 C.3     2  LIG2       -0.0593
     14    C       23.5650    2.8820    4.9780 C.3     2  LIG2       -0.0498
     15    C       24.2000    1.2260    3.1050 C.3     2  LIG2       -0.0621
     16    C       24.8300    6.5220    2.8660 C.3     2  LIG2       -0.0358
     17    H       27.0290    2.3360    2.3560 H       2  LIG2        0.0312
     18    H       29.0990    3.7180    2.8410 H       2  LIG2        0.0309
     19    H       25.1630    3.6300    2.6730 H       2  LIG2        0.0310
     20    H       25.8320    4.4110    5.4950 H       2  LIG2        0.0331
     21    H       27.9950    5.0370    5.3400 H       2  LIG2        0.0269
     22    H       29.1930    5.5530    4.2160 H       2  LIG2        0.0269
     23    H       25.2790    1.6220    4.9010 H       2  LIG2        0.0301
     24    H       23.5710    4.8760    5.8570 H       2  LIG2        0.0269
     25    H       23.1710    4.8220    4.1510 H       2  LIG2        0.0269
     26    H       27.5790    7.0710    3.6580 H       2  LIG2        0.0293
     27    H       27.2910    5.8420    2.4920 H       2  LIG2        0.0293
     28    H       28.7850    2.3490    6.3640 H       2  LIG2        0.0235
     29    H       27.3290    1.4070    6.0950 H       2  LIG2        0.0235
     30    H       27.2470    3.1430    6.2320 H       2  LIG2        0.0235
     31    H       29.9210    1.2130    4.3540 H       2  LIG2        0.0235
     32    H       29.1650    1.2450    2.7700 H       2  LIG2        0.0235
     33    H       28.4670    0.2630    4.0470 H       2  LIG2        0.0235
     34    H       22.5750    2.6370    4.5890 H       2  LIG2        0.0268
     35    H       23.5840    2.5460    6.0160 H       2  LIG2        0.0268
     36    H       23.5920    1.7350    2.3570 H       2  LIG2        0.0233
     37    H       23.5930    0.4340    3.5440 H       2  LIG2        0.0233
     38    H       25.0340    0.7490    2.5880 H       2  LIG2        0.0233
     39    H       24.7980    5.8480    2.0090 H       2  LIG2        0.0257
     40    H       25.1990    7.4830    2.5060 H       2  LIG2        0.0257
     41    H       23.8030    6.6920    3.1900 H       2  LIG2        0.0257
     42    H       26.3270    6.6770    5.7090 H       2  LIG2        0.2102
@<TRIPOS>BOND
     1    39    16    1
     2    17     2    1
     3    36    15    1
     4    27    11    1
     5    40    16    1
     6    38    15    1
     7    19     5    1
     8    32    13    1
     9    18     4    1
    10    16    41    1
    11    16     9    1
    12    15    37    1
    13    15     8    1
    14     2     4    1
    15     2     5    1
    16     2     3    1
    17    11    26    1
    18    11     9    1
    19    11     7    1
    20     4     7    1
    21     4     3    1
    22     5     8    1
    23     5     6    1
    24    13    33    1
    25    13     3    1
    26    13    31    1
    27     9     6    1
    28     9     1    1
    29    25    10    1
    30     8    23    1
    31     8    14    1
    32    22     7    1
    33     7    21    1
    34     3    12    1
    35     6    10    1
    36     6    20    1
    37    34    14    1
    38    10    14    1
    39    10    24    1
    40    14    35    1
    41     1    42    1
    42    12    29    1
    43    12    30    1
    44    12    28    1
@<TRIPOS>MOLECULE
11996452_2_run_17.pdb
 42 44 0 0 0
SMALL
GASTEIGER

@<TRIPOS>ATOM
      1    O       24.0070    6.8070    2.6920 O.3     2  LIG2       -0.3886
      2    C       25.6710    3.0490    4.7360 C.3     2  LIG2       -0.0289
      3    C       25.3190    1.9380    3.7620 C.3     2  LIG2       -0.0284
      4    C       24.1970    2.7480    4.3840 C.3     2  LIG2       -0.0319
      5    C       26.3910    4.3920    4.3910 C.3     2  LIG2       -0.0294
      6    C       25.7860    5.4130    3.3960 C.3     2  LIG2       -0.0090
      7    C       23.3370    3.7700    3.6090 C.3     2  LIG2       -0.0468
      8    C       27.8530    4.1900    3.9280 C.3     2  LIG2       -0.0404
      9    C       24.4730    6.1390    3.8540 C.3     2  LIG2        0.0664
     10    C       26.9820    6.3290    3.0670 C.3     2  LIG2       -0.0471
     11    C       23.3330    5.1630    4.2670 C.3     2  LIG2       -0.0237
     12    C       25.6230    2.0060    2.2490 C.3     2  LIG2       -0.0593
     13    C       25.5030    0.5020    4.2910 C.3     2  LIG2       -0.0593
     14    C       28.2250    5.4360    3.1040 C.3     2  LIG2       -0.0498
     15    C       28.8340    3.8900    5.0760 C.3     2  LIG2       -0.0621
     16    C       24.6570    7.2110    4.9550 C.3     2  LIG2       -0.0358
     17    H       26.0050    2.7150    5.7190 H       2  LIG2        0.0312
     18    H       23.5920    2.2180    5.1210 H       2  LIG2        0.0309
     19    H       26.4400    4.9330    5.3370 H       2  LIG2        0.0310
     20    H       25.5700    4.9040    2.4620 H       2  LIG2        0.0331
     21    H       23.5860    3.8310    2.5510 H       2  LIG2        0.0269
     22    H       22.3120    3.3990    3.6250 H       2  LIG2        0.0269
     23    H       27.8880    3.3390    3.2460 H       2  LIG2        0.0301
     24    H       26.8690    6.8110    2.0940 H       2  LIG2        0.0269
     25    H       27.0980    7.1220    3.8050 H       2  LIG2        0.0269
     26    H       22.3620    5.6340    4.0990 H       2  LIG2        0.0293
     27    H       23.3660    5.0110    5.3470 H       2  LIG2        0.0293
     28    H       24.9680    1.3290    1.7010 H       2  LIG2        0.0235
     29    H       26.6480    1.6960    2.0470 H       2  LIG2        0.0235
     30    H       25.4950    2.9800    1.7960 H       2  LIG2        0.0235
     31    H       24.8490   -0.1970    3.7690 H       2  LIG2        0.0235
     32    H       25.2770    0.4200    5.3550 H       2  LIG2        0.0235
     33    H       26.5320    0.1640    4.1540 H       2  LIG2        0.0235
     34    H       29.0780    5.9750    3.5190 H       2  LIG2        0.0268
     35    H       28.5030    5.1430    2.0900 H       2  LIG2        0.0268
     36    H       28.8680    4.7080    5.7950 H       2  LIG2        0.0233
     37    H       29.8450    3.7380    4.6970 H       2  LIG2        0.0233
     38    H       28.5480    2.9850    5.6140 H       2  LIG2        0.0233
     39    H       25.1050    6.7890    5.8550 H       2  LIG2        0.0257
     40    H       23.6990    7.6460    5.2470 H       2  LIG2        0.0257
     41    H       25.2840    8.0410    4.6310 H       2  LIG2        0.0257
     42    H       24.6900    7.4140    2.3960 H       2  LIG2        0.2102
@<TRIPOS>BOND
     1    28    12    1
     2    30    12    1
     3    29    12    1
     4    35    14    1
     5    24    10    1
     6    12     3    1
     7    42     1    1
     8    20     6    1
     9    21     7    1
    10     1     9    1
    11    10    14    1
    12    10     6    1
    13    10    25    1
    14    14    34    1
    15    14     8    1
    16    23     8    1
    17     6     9    1
    18     6     5    1
    19     7    22    1
    20     7    11    1
    21     7     4    1
    22     3    13    1
    23     3     4    1
    24     3     2    1
    25    31    13    1
    26     9    11    1
    27     9    16    1
    28     8     5    1
    29     8    15    1
    30    26    11    1
    31    33    13    1
    32    11    27    1
    33    13    32    1
    34     4     2    1
    35     4    18    1
    36     5     2    1
    37     5    19    1
    38    41    16    1
    39    37    15    1
    40     2    17    1
    41    16    40    1
    42    16    39    1
    43    15    38    1
    44    15    36    1
@<TRIPOS>MOLECULE
11996452_2_run_6.pdb
 42 44 0 0 0
SMALL
GASTEIGER

@<TRIPOS>ATOM
      1    O       26.2840    3.1430    5.5030 O.3     2  LIG2       -0.3886
      2    C       29.9350    0.4760    4.7120 C.3     2  LIG2       -0.0289
      3    C       30.4770    0.2050    6.1050 C.3     2  LIG2       -0.0284
      4    C       30.4190    1.6370    5.6070 C.3     2  LIG2       -0.0319
      5    C       28.4550    0.2980    4.2410 C.3     2  LIG2       -0.0294
      6    C       27.2910    1.0930    4.8830 C.3     2  LIG2       -0.0090
      7    C       29.4320    2.6980    6.1420 C.3     2  LIG2       -0.0468
      8    C       27.9940   -1.1780    4.2500 C.3     2  LIG2       -0.0404
      9    C       27.2760    2.6400    4.6210 C.3     2  LIG2        0.0664
     10    C       26.0420    0.3190    4.4160 C.3     2  LIG2       -0.0471
     11    C       28.6000    3.3530    5.0230 C.3     2  LIG2       -0.0237
     12    C       29.5990   -0.2790    7.2800 C.3     2  LIG2       -0.0593
     13    C       31.8740   -0.4440    6.1640 C.3     2  LIG2       -0.0593
     14    C       26.4570   -1.1530    4.3410 C.3     2  LIG2       -0.0498
     15    C       28.5320   -2.0060    3.0680 C.3     2  LIG2       -0.0621
     16    C       26.8750    3.0670    3.1890 C.3     2  LIG2       -0.0358
     17    H       30.5990    0.1950    3.8940 H       2  LIG2        0.0312
     18    H       31.3850    2.0920    5.3810 H       2  LIG2        0.0309
     19    H       28.4550    0.6150    3.1970 H       2  LIG2        0.0310
     20    H       27.3170    0.9430    5.9580 H       2  LIG2        0.0331
     21    H       28.7970    2.3320    6.9460 H       2  LIG2        0.0269
     22    H       30.0300    3.4830    6.6050 H       2  LIG2        0.0269
     23    H       28.3560   -1.6510    5.1640 H       2  LIG2        0.0301
     24    H       25.2000    0.4590    5.0960 H       2  LIG2        0.0269
     25    H       25.7130    0.6410    3.4290 H       2  LIG2        0.0269
     26    H       28.3960    4.3910    5.2910 H       2  LIG2        0.0293
     27    H       29.2440    3.4320    4.1440 H       2  LIG2        0.0293
     28    H       30.0730   -0.0380    8.2310 H       2  LIG2        0.0235
     29    H       29.4740   -1.3620    7.2470 H       2  LIG2        0.0235
     30    H       28.6060    0.1490    7.3220 H       2  LIG2        0.0235
     31    H       32.3780   -0.2080    7.1010 H       2  LIG2        0.0235
     32    H       32.5230   -0.1050    5.3550 H       2  LIG2        0.0235
     33    H       31.8030   -1.5300    6.0860 H       2  LIG2        0.0235
     34    H       25.9780   -1.6490    3.4960 H       2  LIG2        0.0268
     35    H       26.1290   -1.6790    5.2390 H       2  LIG2        0.0268
     36    H       28.1950   -1.6020    2.1130 H       2  LIG2        0.0233
     37    H       28.1940   -3.0410    3.1290 H       2  LIG2        0.0233
     38    H       29.6230   -2.0190    3.0590 H       2  LIG2        0.0233
     39    H       27.5390    2.6350    2.4410 H       2  LIG2        0.0257
     40    H       26.9200    4.1510    3.0730 H       2  LIG2        0.0257
     41    H       25.8560    2.7750    2.9350 H       2  LIG2        0.0257
     42    H       25.4430    2.7380    5.2790 H       2  LIG2        0.2102
@<TRIPOS>BOND
     1    36    15    1
     2    39    16    1
     3    41    16    1
     4    38    15    1
     5    15    37    1
     6    15     8    1
     7    40    16    1
     8    16     9    1
     9    19     5    1
    10    25    10    1
    11    34    14    1
    12    17     2    1
    13    27    11    1
    14     5     8    1
    15     5     2    1
    16     5     6    1
    17     8    14    1
    18     8    23    1
    19    14    10    1
    20    14    35    1
    21    10     6    1
    22    10    24    1
    23     9     6    1
    24     9    11    1
    25     9     1    1
    26     2     4    1
    27     2     3    1
    28     6    20    1
    29    11    26    1
    30    11     7    1
    31    42     1    1
    32    32    13    1
    33    18     4    1
    34     4     3    1
    35     4     7    1
    36    33    13    1
    37     3    13    1
    38     3    12    1
    39     7    22    1
    40     7    21    1
    41    13    31    1
    42    29    12    1
    43    12    30    1
    44    12    28    1
@<TRIPOS>MOLECULE
11996452_2_run_15.pdb
 42 44 0 0 0
SMALL
GASTEIGER

@<TRIPOS>ATOM
      1    O       28.7950    2.0230    3.2720 O.3     2  LIG2       -0.3886
      2    C       25.9720    5.3370    4.7260 C.3     2  LIG2       -0.0289
      3    C       26.0320    6.3620    3.6060 C.3     2  LIG2       -0.0284
      4    C       27.3060    6.0210    4.3550 C.3     2  LIG2       -0.0319
      5    C       25.7060    3.8060    4.5690 C.3     2  LIG2       -0.0294
      6    C       26.6440    2.8930    3.7410 C.3     2  LIG2       -0.0090
      7    C       28.4750    5.2150    3.7480 C.3     2  LIG2       -0.0468
      8    C       24.2800    3.4910    4.0610 C.3     2  LIG2       -0.0404
      9    C       28.0850    2.6670    4.3190 C.3     2  LIG2        0.0664
     10    C       25.7970    1.6210    3.5320 C.3     2  LIG2       -0.0471
     11    C       28.8570    3.9890    4.6010 C.3     2  LIG2       -0.0237
     12    C       25.8490    6.0030    2.1150 C.3     2  LIG2       -0.0593
     13    C       25.3980    7.7320    3.9190 C.3     2  LIG2       -0.0593
     14    C       24.3440    2.0920    3.4210 C.3     2  LIG2       -0.0498
     15    C       23.1890    3.6300    5.1390 C.3     2  LIG2       -0.0621
     16    C       28.1670    1.7480    5.5610 C.3     2  LIG2       -0.0358
     17    H       25.4980    5.6830    5.6450 H       2  LIG2        0.0312
     18    H       27.6830    6.8040    5.0160 H       2  LIG2        0.0309
     19    H       25.7670    3.4070    5.5830 H       2  LIG2        0.0310
     20    H       26.7520    3.3140    2.7460 H       2  LIG2        0.0331
     21    H       28.3170    4.9390    2.7070 H       2  LIG2        0.0269
     22    H       29.3400    5.8780    3.7250 H       2  LIG2        0.0269
     23    H       24.0310    4.1920    3.2620 H       2  LIG2        0.0301
     24    H       26.1040    1.0710    2.6410 H       2  LIG2        0.0269
     25    H       25.8800    0.9370    4.3750 H       2  LIG2        0.0269
     26    H       29.9320    3.8180    4.5170 H       2  LIG2        0.0293
     27    H       28.7180    4.2680    5.6480 H       2  LIG2        0.0293
     28    H       26.3030    6.7670    1.4830 H       2  LIG2        0.0235
     29    H       24.7910    5.9570    1.8550 H       2  LIG2        0.0235
     30    H       26.2870    5.0620    1.8090 H       2  LIG2        0.0235
     31    H       25.8420    8.5190    3.3100 H       2  LIG2        0.0235
     32    H       25.5280    8.0200    4.9630 H       2  LIG2        0.0235
     33    H       24.3250    7.7200    3.7200 H       2  LIG2        0.0235
     34    H       23.6680    1.3810    3.8980 H       2  LIG2        0.0268
     35    H       24.0490    2.1480    2.3720 H       2  LIG2        0.0268
     36    H       23.3600    2.9440    5.9690 H       2  LIG2        0.0233
     37    H       22.2020    3.4160    4.7290 H       2  LIG2        0.0233
     38    H       23.1610    4.6430    5.5450 H       2  LIG2        0.0233
     39    H       27.5620    2.1310    6.3840 H       2  LIG2        0.0257
     40    H       29.1920    1.6670    5.9260 H       2  LIG2        0.0257
     41    H       27.8360    0.7310    5.3520 H       2  LIG2        0.0257
     42    H       29.6770    1.8120    3.5870 H       2  LIG2        0.2102
@<TRIPOS>BOND
     1    28    12    1
     2    30    12    1
     3    29    12    1
     4    12     3    1
     5    35    14    1
     6    24    10    1
     7    21     7    1
     8    20     6    1
     9    23     8    1
    10     1    42    1
    11     1     9    1
    12    31    13    1
    13    14    10    1
    14    14    34    1
    15    14     8    1
    16    10     6    1
    17    10    25    1
    18     3    13    1
    19     3     4    1
    20     3     2    1
    21    33    13    1
    22    22     7    1
    23     6     9    1
    24     6     5    1
    25     7     4    1
    26     7    11    1
    27    13    32    1
    28     8     5    1
    29     8    15    1
    30     9    11    1
    31     9    16    1
    32     4     2    1
    33     4    18    1
    34    26    11    1
    35     5     2    1
    36     5    19    1
    37    11    27    1
    38     2    17    1
    39    37    15    1
    40    15    38    1
    41    15    36    1
    42    41    16    1
    43    16    40    1
    44    16    39    1
