@<TRIPOS>MOLECULE
11996452_11_run_13.pdb
 42 44 0 0 0
SMALL
GASTEIGER

@<TRIPOS>ATOM
      1    O       29.8800   -1.1070    6.1070 O.3     2  LIG2       -0.3886
      2    C       26.4680    1.5310    4.6180 C.3     2  LIG2       -0.0289
      3    C       25.3610    1.2430    3.6210 C.3     2  LIG2       -0.0284
      4    C       25.7970    0.1500    4.5730 C.3     2  LIG2       -0.0319
      5    C       27.9680    1.6260    4.2360 C.3     2  LIG2       -0.0294
      6    C       28.8500    0.9080    5.2930 C.3     2  LIG2       -0.0090
      7    C       26.6200   -1.0890    4.1510 C.3     2  LIG2       -0.0468
      8    C       28.5480    3.0600    4.0640 C.3     2  LIG2       -0.0404
      9    C       29.0700   -0.6230    5.0480 C.3     2  LIG2        0.0664
     10    C       30.1170    1.7750    5.4000 C.3     2  LIG2       -0.0471
     11    C       27.7530   -1.4540    5.1370 C.3     2  LIG2       -0.0237
     12    C       24.0000    1.9080    3.9000 C.3     2  LIG2       -0.0593
     13    C       25.6500    1.1560    2.1030 C.3     2  LIG2       -0.0593
     14    C       29.6350    3.1990    5.1370 C.3     2  LIG2       -0.0498
     15    C       27.5300    4.2200    4.0880 C.3     2  LIG2       -0.0621
     16    C       29.8410   -0.9760    3.7510 C.3     2  LIG2       -0.0358
     17    H       26.2310    2.1410    5.4900 H       2  LIG2        0.0312
     18    H       25.0800   -0.1070    5.3550 H       2  LIG2        0.0309
     19    H       28.1280    1.1360    3.2800 H       2  LIG2        0.0310
     20    H       28.3550    1.0030    6.2630 H       2  LIG2        0.0331
     21    H       25.9320   -1.9330    4.1070 H       2  LIG2        0.0269
     22    H       27.0220   -1.0030    3.1440 H       2  LIG2        0.0269
     23    H       29.0480    3.1070    3.0950 H       2  LIG2        0.0301
     24    H       30.5880    1.6920    6.3810 H       2  LIG2        0.0269
     25    H       30.8630    1.4950    4.6570 H       2  LIG2        0.0269
     26    H       27.3430   -1.3800    6.1480 H       2  LIG2        0.0293
     27    H       27.9890   -2.5110    4.9990 H       2  LIG2        0.0293
     28    H       23.1860    1.3380    3.4530 H       2  LIG2        0.0235
     29    H       23.9670    2.9180    3.4890 H       2  LIG2        0.0235
     30    H       23.7930    1.9870    4.9680 H       2  LIG2        0.0235
     31    H       24.8750    0.5810    1.5970 H       2  LIG2        0.0235
     32    H       26.5990    0.6900    1.8500 H       2  LIG2        0.0235
     33    H       25.6640    2.1520    1.6600 H       2  LIG2        0.0235
     34    H       30.4540    3.8410    4.8100 H       2  LIG2        0.0268
     35    H       29.2280    3.6340    6.0520 H       2  LIG2        0.0268
     36    H       27.0200    4.2960    5.0490 H       2  LIG2        0.0233
     37    H       26.7720    4.0940    3.3150 H       2  LIG2        0.0233
     38    H       28.0250    5.1750    3.9080 H       2  LIG2        0.0233
     39    H       29.3150   -0.6600    2.8510 H       2  LIG2        0.0257
     40    H       29.9950   -2.0530    3.6590 H       2  LIG2        0.0257
     41    H       30.8310   -0.5220    3.7210 H       2  LIG2        0.0257
     42    H       30.7540   -0.7170    6.0230 H       2  LIG2        0.2102
@<TRIPOS>BOND
     1    31    13    1
     2    33    13    1
     3    32    13    1
     4    13     3    1
     5    39    16    1
     6    23     8    1
     7    22     7    1
     8    19     5    1
     9    37    15    1
    10    28    12    1
    11    29    12    1
    12     3    12    1
    13     3     4    1
    14     3     2    1
    15    40    16    1
    16    41    16    1
    17    16     9    1
    18    12    30    1
    19    38    15    1
    20     8    15    1
    21     8     5    1
    22     8    14    1
    23    15    36    1
    24    21     7    1
    25     7     4    1
    26     7    11    1
    27     5     2    1
    28     5     6    1
    29     4     2    1
    30     4    18    1
    31     2    17    1
    32    25    10    1
    33    34    14    1
    34    27    11    1
    35     9    11    1
    36     9     6    1
    37     9     1    1
    38    14    10    1
    39    14    35    1
    40    11    26    1
    41     6    10    1
    42     6    20    1
    43    10    24    1
    44    42     1    1
@<TRIPOS>MOLECULE
11996452_11_run_22.pdb
 42 44 0 0 0
SMALL
GASTEIGER

@<TRIPOS>ATOM
      1    O       25.8520    4.1800    2.8550 O.3     2  LIG2       -0.3886
      2    C       28.2760    0.4250    3.7750 C.3     2  LIG2       -0.0289
      3    C       27.8310   -1.0110    3.9840 C.3     2  LIG2       -0.0284
      4    C       27.1440   -0.1720    2.9280 C.3     2  LIG2       -0.0319
      5    C       27.9290    1.5840    4.7460 C.3     2  LIG2       -0.0294
      6    C       27.5360    2.8610    3.9570 C.3     2  LIG2       -0.0090
      7    C       25.7080    0.3860    3.0650 C.3     2  LIG2       -0.0468
      8    C       29.0420    2.0010    5.7510 C.3     2  LIG2       -0.0404
      9    C       26.0210    2.9680    3.5730 C.3     2  LIG2        0.0664
     10    C       28.1200    4.0250    4.7780 C.3     2  LIG2       -0.0471
     11    C       25.5560    1.8500    2.5910 C.3     2  LIG2       -0.0237
     12    C       28.7950   -2.1040    3.4850 C.3     2  LIG2       -0.0593
     13    C       27.0990   -1.4450    5.2760 C.3     2  LIG2       -0.0593
     14    C       29.3870    3.4550    5.4090 C.3     2  LIG2       -0.0498
     15    C       30.2850    1.0880    5.8160 C.3     2  LIG2       -0.0621
     16    C       25.0460    3.0670    4.7740 C.3     2  LIG2       -0.0358
     17    H       29.2150    0.6030    3.2480 H       2  LIG2        0.0312
     18    H       27.3560   -0.4490    1.8940 H       2  LIG2        0.0309
     19    H       27.0800    1.2970    5.3600 H       2  LIG2        0.0310
     20    H       28.0970    2.8620    3.0180 H       2  LIG2        0.0331
     21    H       25.0610   -0.2340    2.4450 H       2  LIG2        0.0269
     22    H       25.3110    0.2830    4.0730 H       2  LIG2        0.0269
     23    H       28.6070    2.0020    6.7530 H       2  LIG2        0.0301
     24    H       28.3440    4.8930    4.1550 H       2  LIG2        0.0269
     25    H       27.4340    4.3530    5.5580 H       2  LIG2        0.0269
     26    H       26.0990    1.9450    1.6470 H       2  LIG2        0.0293
     27    H       24.5070    2.0120    2.3370 H       2  LIG2        0.0293
     28    H       28.2590   -3.0240    3.2530 H       2  LIG2        0.0235
     29    H       29.5470   -2.3350    4.2410 H       2  LIG2        0.0235
     30    H       29.3280   -1.8020    2.5820 H       2  LIG2        0.0235
     31    H       26.5280   -2.3570    5.1050 H       2  LIG2        0.0235
     32    H       26.4010   -0.7090    5.6690 H       2  LIG2        0.0235
     33    H       27.8160   -1.6490    6.0710 H       2  LIG2        0.0235
     34    H       29.6810    4.0250    6.2920 H       2  LIG2        0.0268
     35    H       30.2160    3.5030    4.7010 H       2  LIG2        0.0268
     36    H       30.8300    1.0720    4.8700 H       2  LIG2        0.0233
     37    H       30.0090    0.0630    6.0620 H       2  LIG2        0.0233
     38    H       30.9800    1.4320    6.5830 H       2  LIG2        0.0233
     39    H       25.0730    2.1840    5.4110 H       2  LIG2        0.0257
     40    H       24.0130    3.1780    4.4400 H       2  LIG2        0.0257
     41    H       25.2570    3.9280    5.4090 H       2  LIG2        0.0257
     42    H       26.0560    4.9120    3.4420 H       2  LIG2        0.2102
@<TRIPOS>BOND
     1    26    11    1
     2    18     4    1
     3    27    11    1
     4    21     7    1
     5    30    12    1
     6    11     7    1
     7    11     9    1
     8     1    42    1
     9     1     9    1
    10     4     7    1
    11     4     2    1
    12     4     3    1
    13    20     6    1
    14     7    22    1
    15    17     2    1
    16    28    12    1
    17    12     3    1
    18    12    29    1
    19     9     6    1
    20     9    16    1
    21     2     3    1
    22     2     5    1
    23     6     5    1
    24     6    10    1
    25     3    13    1
    26    24    10    1
    27    40    16    1
    28    35    14    1
    29     5    19    1
    30     5     8    1
    31    16    41    1
    32    16    39    1
    33    10    14    1
    34    10    25    1
    35    36    15    1
    36    31    13    1
    37    13    32    1
    38    13    33    1
    39    14     8    1
    40    14    34    1
    41     8    15    1
    42     8    23    1
    43    15    37    1
    44    15    38    1
@<TRIPOS>MOLECULE
11996452_11_run_5.pdb
 42 44 0 0 0
SMALL
GASTEIGER

@<TRIPOS>ATOM
      1    O       29.0990    3.6430    6.6770 O.3     2  LIG2       -0.3886
      2    C       27.5510   -0.1370    4.6440 C.3     2  LIG2       -0.0289
      3    C       28.3000   -1.3030    4.0270 C.3     2  LIG2       -0.0284
      4    C       28.8340   -0.6730    5.2950 C.3     2  LIG2       -0.0319
      5    C       27.5720    1.3020    4.0670 C.3     2  LIG2       -0.0294
      6    C       27.7050    2.3480    5.2060 C.3     2  LIG2       -0.0090
      7    C       30.0950    0.2200    5.3540 C.3     2  LIG2       -0.0468
      8    C       26.3410    1.7220    3.2110 C.3     2  LIG2       -0.0404
      9    C       29.1740    2.6900    5.6290 C.3     2  LIG2        0.0664
     10    C       26.8270    3.5310    4.7570 C.3     2  LIG2       -0.0471
     11    C       29.9330    1.4750    6.2440 C.3     2  LIG2       -0.0237
     12    C       27.6400   -2.6880    4.1620 C.3     2  LIG2       -0.0593
     13    C       29.0430   -1.1570    2.6770 C.3     2  LIG2       -0.0593
     14    C       25.6920    2.8900    3.9630 C.3     2  LIG2       -0.0498
     15    C       25.3380    0.6040    2.8580 C.3     2  LIG2       -0.0621
     16    C       30.0340    3.3610    4.5280 C.3     2  LIG2       -0.0358
     17    H       26.6260   -0.3460    5.1840 H       2  LIG2        0.0312
     18    H       28.7460   -1.2820    6.1970 H       2  LIG2        0.0309
     19    H       28.4300    1.4140    3.4090 H       2  LIG2        0.0310
     20    H       27.2090    1.9440    6.0920 H       2  LIG2        0.0331
     21    H       30.8990   -0.3840    5.7740 H       2  LIG2        0.0269
     22    H       30.4500    0.5110    4.3680 H       2  LIG2        0.0269
     23    H       26.7100    2.1170    2.2620 H       2  LIG2        0.0301
     24    H       26.4440    4.1010    5.6050 H       2  LIG2        0.0269
     25    H       27.3780    4.2230    4.1210 H       2  LIG2        0.0269
     26    H       29.4340    1.1600    7.1640 H       2  LIG2        0.0293
     27    H       30.9300    1.7970    6.5520 H       2  LIG2        0.0293
     28    H       28.3840   -3.4830    4.1210 H       2  LIG2        0.0235
     29    H       26.9210   -2.8580    3.3600 H       2  LIG2        0.0235
     30    H       27.1020   -2.7960    5.1050 H       2  LIG2        0.0235
     31    H       29.8150   -1.9190    2.5790 H       2  LIG2        0.0235
     32    H       29.5310   -0.1970    2.5310 H       2  LIG2        0.0235
     33    H       28.3490   -1.2830    1.8450 H       2  LIG2        0.0235
     34    H       25.2290    3.6070    3.2840 H       2  LIG2        0.0268
     35    H       24.9130    2.5340    4.6390 H       2  LIG2        0.0268
     36    H       24.8630    0.1850    3.7460 H       2  LIG2        0.0233
     37    H       25.8270   -0.2110    2.3240 H       2  LIG2        0.0233
     38    H       24.5430    0.9840    2.2150 H       2  LIG2        0.0233
     39    H       30.1760    2.7210    3.6580 H       2  LIG2        0.0257
     40    H       31.0310    3.6080    4.8980 H       2  LIG2        0.0257
     41    H       29.5990    4.2950    4.1740 H       2  LIG2        0.0257
     42    H       28.8490    4.4900    6.3000 H       2  LIG2        0.2102
@<TRIPOS>BOND
     1    33    13    1
     2    38    15    1
     3    23     8    1
     4    37    15    1
     5    32    13    1
     6    31    13    1
     7    13     3    1
     8    15     8    1
     9    15    36    1
    10     8    14    1
    11     8     5    1
    12    34    14    1
    13    29    12    1
    14    19     5    1
    15    39    16    1
    16    14    35    1
    17    14    10    1
    18     3    12    1
    19     3     2    1
    20     3     4    1
    21     5     2    1
    22     5     6    1
    23    28    12    1
    24    25    10    1
    25    12    30    1
    26    41    16    1
    27    22     7    1
    28    16    40    1
    29    16     9    1
    30     2    17    1
    31     2     4    1
    32    10     6    1
    33    10    24    1
    34     6     9    1
    35     6    20    1
    36     4     7    1
    37     4    18    1
    38     7    21    1
    39     7    11    1
    40     9    11    1
    41     9     1    1
    42    11    27    1
    43    11    26    1
    44    42     1    1
@<TRIPOS>MOLECULE
11996452_11_run_2.pdb
 42 44 0 0 0
SMALL
GASTEIGER

@<TRIPOS>ATOM
      1    O       31.2630    0.5160    5.2970 O.3     2  LIG2       -0.3886
      2    C       27.4640    2.4620    3.6850 C.3     2  LIG2       -0.0289
      3    C       26.6600    3.6390    4.2060 C.3     2  LIG2       -0.0284
      4    C       28.1710    3.6840    4.2900 C.3     2  LIG2       -0.0319
      5    C       27.5860    1.1060    4.4280 C.3     2  LIG2       -0.0294
      6    C       29.0450    0.5780    4.3700 C.3     2  LIG2       -0.0090
      7    C       28.9700    3.5330    5.6050 C.3     2  LIG2       -0.0468
      8    C       26.6700   -0.0460    3.9200 C.3     2  LIG2       -0.0404
      9    C       29.9830    1.0860    5.5170 C.3     2  LIG2        0.0664
     10    C       28.9040   -0.9480    4.2230 C.3     2  LIG2       -0.0471
     11    C       30.2170    2.6270    5.4810 C.3     2  LIG2       -0.0237
     12    C       25.9950    4.5350    3.1450 C.3     2  LIG2       -0.0593
     13    C       25.7840    3.5130    5.4750 C.3     2  LIG2       -0.0593
     14    C       27.6200   -1.1430    3.4220 C.3     2  LIG2       -0.0498
     15    C       25.5990    0.3390    2.8770 C.3     2  LIG2       -0.0621
     16    C       29.5770    0.6370    6.9440 C.3     2  LIG2       -0.0358
     17    H       27.5670    2.3450    2.6050 H       2  LIG2        0.0312
     18    H       28.6600    4.3900    3.6160 H       2  LIG2        0.0309
     19    H       27.3220    1.2420    5.4730 H       2  LIG2        0.0310
     20    H       29.4870    0.9170    3.4290 H       2  LIG2        0.0331
     21    H       29.3090    4.5290    5.8920 H       2  LIG2        0.0269
     22    H       28.3530    3.1980    6.4360 H       2  LIG2        0.0269
     23    H       26.1330   -0.4530    4.7790 H       2  LIG2        0.0301
     24    H       29.7610   -1.3900    3.7100 H       2  LIG2        0.0269
     25    H       28.8150   -1.4400    5.1910 H       2  LIG2        0.0269
     26    H       30.7260    2.8970    4.5520 H       2  LIG2        0.0293
     27    H       30.9100    2.9010    6.2790 H       2  LIG2        0.0293
     28    H       25.8400    5.5450    3.5250 H       2  LIG2        0.0235
     29    H       25.0250    4.1350    2.8490 H       2  LIG2        0.0235
     30    H       26.5990    4.6180    2.2400 H       2  LIG2        0.0235
     31    H       25.6030    4.4940    5.9150 H       2  LIG2        0.0235
     32    H       26.2090    2.8930    6.2590 H       2  LIG2        0.0235
     33    H       24.8140    3.0800    5.2270 H       2  LIG2        0.0235
     34    H       27.2060   -2.1410    3.5730 H       2  LIG2        0.0268
     35    H       27.8190   -1.0310    2.3550 H       2  LIG2        0.0268
     36    H       26.0430    0.7000    1.9490 H       2  LIG2        0.0233
     37    H       24.9390    1.1180    3.2590 H       2  LIG2        0.0233
     38    H       24.9770   -0.5210    2.6250 H       2  LIG2        0.0233
     39    H       28.6020    1.0180    7.2420 H       2  LIG2        0.0257
     40    H       30.2910    0.9900    7.6900 H       2  LIG2        0.0257
     41    H       29.5420   -0.4480    7.0420 H       2  LIG2        0.0257
     42    H       31.4980    0.6430    4.3740 H       2  LIG2        0.2102
@<TRIPOS>BOND
     1    36    15    1
     2    30    12    1
     3    35    14    1
     4    17     2    1
     5    38    15    1
     6    29    12    1
     7    15    37    1
     8    15     8    1
     9    12    28    1
    10    12     3    1
    11    14    34    1
    12    14     8    1
    13    14    10    1
    14    20     6    1
    15    18     4    1
    16     2     3    1
    17     2     4    1
    18     2     5    1
    19    24    10    1
    20     8     5    1
    21     8    23    1
    22     3     4    1
    23     3    13    1
    24    10     6    1
    25    10    25    1
    26     4     7    1
    27     6     5    1
    28     6     9    1
    29    42     1    1
    30     5    19    1
    31    26    11    1
    32    33    13    1
    33     1     9    1
    34    13    31    1
    35    13    32    1
    36    11     9    1
    37    11     7    1
    38    11    27    1
    39     9    16    1
    40     7    21    1
    41     7    22    1
    42    16    41    1
    43    16    39    1
    44    16    40    1
@<TRIPOS>MOLECULE
11996452_11_run_19.pdb
 42 44 0 0 0
SMALL
GASTEIGER

@<TRIPOS>ATOM
      1    O       30.7140    3.0920    4.7550 O.3     2  LIG2       -0.3886
      2    C       26.8490    1.1060    3.3640 C.3     2  LIG2       -0.0289
      3    C       25.4140    1.5970    3.4130 C.3     2  LIG2       -0.0284
      4    C       26.5190    2.5810    3.0960 C.3     2  LIG2       -0.0319
      5    C       27.6850    0.7620    4.6240 C.3     2  LIG2       -0.0294
      6    C       29.1350    1.2980    4.4850 C.3     2  LIG2       -0.0090
      7    C       27.0180    3.6680    4.0770 C.3     2  LIG2       -0.0468
      8    C       27.7970   -0.7480    4.9890 C.3     2  LIG2       -0.0404
      9    C       29.3480    2.7740    4.9660 C.3     2  LIG2        0.0664
     10    C       30.0160    0.2250    5.1490 C.3     2  LIG2       -0.0471
     11    C       28.5570    3.8160    4.1190 C.3     2  LIG2       -0.0237
     12    C       24.5060    1.1710    2.2440 C.3     2  LIG2       -0.0593
     13    C       24.6320    1.6600    4.7460 C.3     2  LIG2       -0.0593
     14    C       29.2880   -1.0900    4.8850 C.3     2  LIG2       -0.0498
     15    C       26.9020   -1.7160    4.1860 C.3     2  LIG2       -0.0621
     16    C       29.1040    3.0120    6.4780 C.3     2  LIG2       -0.0358
     17    H       27.1680    0.5290    2.4940 H       2  LIG2        0.0312
     18    H       26.5480    2.9440    2.0670 H       2  LIG2        0.0309
     19    H       27.2370    1.2340    5.4940 H       2  LIG2        0.0310
     20    H       29.4010    1.2730    3.4250 H       2  LIG2        0.0331
     21    H       26.6010    4.6190    3.7430 H       2  LIG2        0.0269
     22    H       26.6330    3.5330    5.0850 H       2  LIG2        0.0269
     23    H       27.5140   -0.8620    6.0370 H       2  LIG2        0.0301
     24    H       31.0250    0.2090    4.7320 H       2  LIG2        0.0269
     25    H       30.1100    0.3870    6.2220 H       2  LIG2        0.0269
     26    H       28.9150    3.7960    3.0870 H       2  LIG2        0.0293
     27    H       28.7860    4.8190    4.4840 H       2  LIG2        0.0293
     28    H       23.6920    1.8800    2.1010 H       2  LIG2        0.0235
     29    H       24.0680    0.1890    2.4280 H       2  LIG2        0.0235
     30    H       25.0520    1.1090    1.3010 H       2  LIG2        0.0235
     31    H       23.8070    2.3680    4.6740 H       2  LIG2        0.0235
     32    H       25.2270    1.9610    5.6050 H       2  LIG2        0.0235
     33    H       24.2090    0.6850    4.9870 H       2  LIG2        0.0235
     34    H       29.5830   -1.8570    5.6030 H       2  LIG2        0.0268
     35    H       29.5340   -1.4650    3.8900 H       2  LIG2        0.0268
     36    H       27.1540   -1.7200    3.1250 H       2  LIG2        0.0233
     37    H       25.8490   -1.4480    4.2800 H       2  LIG2        0.0233
     38    H       27.0120   -2.7380    4.5490 H       2  LIG2        0.0233
     39    H       28.0760    2.8070    6.7740 H       2  LIG2        0.0257
     40    H       29.3070    4.0480    6.7560 H       2  LIG2        0.0257
     41    H       29.7490    2.3950    7.1040 H       2  LIG2        0.0257
     42    H       30.8490    3.2450    3.8160 H       2  LIG2        0.2102
@<TRIPOS>BOND
     1    30    12    1
     2    18     4    1
     3    28    12    1
     4    12    29    1
     5    12     3    1
     6    17     2    1
     7    26    11    1
     8     4     2    1
     9     4     3    1
    10     4     7    1
    11    36    15    1
    12     2     3    1
    13     2     5    1
    14     3    13    1
    15    20     6    1
    16    21     7    1
    17    42     1    1
    18    35    14    1
    19     7    11    1
    20     7    22    1
    21    11    27    1
    22    11     9    1
    23    15    37    1
    24    15    38    1
    25    15     8    1
    26     6     5    1
    27     6     9    1
    28     6    10    1
    29     5     8    1
    30     5    19    1
    31    31    13    1
    32    24    10    1
    33    13    33    1
    34    13    32    1
    35     1     9    1
    36    14     8    1
    37    14    10    1
    38    14    34    1
    39     9    16    1
    40     8    23    1
    41    10    25    1
    42    16    40    1
    43    16    39    1
    44    16    41    1
@<TRIPOS>MOLECULE
11996452_11_run_24.pdb
 42 44 0 0 0
SMALL
GASTEIGER

@<TRIPOS>ATOM
      1    O       28.5810   -2.0240    2.1050 O.3     2  LIG2       -0.3886
      2    C       28.9710    1.8540    4.4760 C.3     2  LIG2       -0.0289
      3    C       29.7080    2.1520    5.7690 C.3     2  LIG2       -0.0284
      4    C       30.3360    1.2130    4.7610 C.3     2  LIG2       -0.0319
      5    C       27.7320    0.9260    4.3860 C.3     2  LIG2       -0.0294
      6    C       27.8210    0.0130    3.1330 C.3     2  LIG2       -0.0090
      7    C       30.4380   -0.3190    4.9510 C.3     2  LIG2       -0.0468
      8    C       26.3430    1.6280    4.3330 C.3     2  LIG2       -0.0404
      9    C       28.5920   -1.3350    3.3450 C.3     2  LIG2        0.0664
     10    C       26.3720   -0.0970    2.6240 C.3     2  LIG2       -0.0471
     11    C       30.1010   -1.1320    3.6800 C.3     2  LIG2       -0.0237
     12    C       30.3300    3.5550    5.8940 C.3     2  LIG2       -0.0593
     13    C       29.1800    1.6410    7.1300 C.3     2  LIG2       -0.0593
     14    C       25.7350    1.2430    2.9780 C.3     2  LIG2       -0.0498
     15    C       26.3350    3.1510    4.5830 C.3     2  LIG2       -0.0621
     16    C       27.9410   -2.3100    4.3590 C.3     2  LIG2       -0.0358
     17    H       28.9630    2.6200    3.6990 H       2  LIG2        0.0312
     18    H       31.2130    1.5990    4.2390 H       2  LIG2        0.0309
     19    H       27.6960    0.2860    5.2630 H       2  LIG2        0.0310
     20    H       28.3580    0.5620    2.3550 H       2  LIG2        0.0331
     21    H       31.4690   -0.5420    5.2250 H       2  LIG2        0.0269
     22    H       29.8430   -0.6790    5.7880 H       2  LIG2        0.0269
     23    H       25.7120    1.1840    5.1050 H       2  LIG2        0.0301
     24    H       26.3300   -0.2830    1.5500 H       2  LIG2        0.0269
     25    H       25.8320   -0.9050    3.1160 H       2  LIG2        0.0269
     26    H       30.5990   -0.6450    2.8390 H       2  LIG2        0.0293
     27    H       30.5790   -2.1090    3.7710 H       2  LIG2        0.0293
     28    H       31.1750    3.5500    6.5810 H       2  LIG2        0.0235
     29    H       29.5990    4.2740    6.2650 H       2  LIG2        0.0235
     30    H       30.6930    3.9300    4.9350 H       2  LIG2        0.0235
     31    H       29.9850    1.5980    7.8630 H       2  LIG2        0.0235
     32    H       28.7330    0.6500    7.0990 H       2  LIG2        0.0235
     33    H       28.4160    2.3140    7.5200 H       2  LIG2        0.0235
     34    H       24.6480    1.1650    3.0260 H       2  LIG2        0.0268
     35    H       25.9740    1.9880    2.2180 H       2  LIG2        0.0268
     36    H       26.8920    3.6940    3.8190 H       2  LIG2        0.0233
     37    H       26.7710    3.3930    5.5530 H       2  LIG2        0.0233
     38    H       25.3160    3.5390    4.5790 H       2  LIG2        0.0233
     39    H       27.8940   -1.8980    5.3660 H       2  LIG2        0.0257
     40    H       28.5040   -3.2430    4.4310 H       2  LIG2        0.0257
     41    H       26.9260   -2.5860    4.0750 H       2  LIG2        0.0257
     42    H       27.6780   -2.2850    1.9100 H       2  LIG2        0.2102
@<TRIPOS>BOND
     1    24    10    1
     2    42     1    1
     3     1     9    1
     4    35    14    1
     5    20     6    1
     6    10    14    1
     7    10    25    1
     8    10     6    1
     9    26    11    1
    10    14    34    1
    11    14     8    1
    12     6     9    1
    13     6     5    1
    14     9    11    1
    15     9    16    1
    16    11    27    1
    17    11     7    1
    18    17     2    1
    19    36    15    1
    20    41    16    1
    21    18     4    1
    22     8     5    1
    23     8    15    1
    24     8    23    1
    25    16    40    1
    26    16    39    1
    27     5     2    1
    28     5    19    1
    29     2     4    1
    30     2     3    1
    31    38    15    1
    32    15    37    1
    33     4     7    1
    34     4     3    1
    35    30    12    1
    36     7    21    1
    37     7    22    1
    38     3    12    1
    39     3    13    1
    40    12    29    1
    41    12    28    1
    42    32    13    1
    43    13    33    1
    44    13    31    1
@<TRIPOS>MOLECULE
11996452_11_run_4.pdb
 42 44 0 0 0
SMALL
GASTEIGER

@<TRIPOS>ATOM
      1    O       25.8150    1.5170    2.2140 O.3     2  LIG2       -0.3886
      2    C       29.5400    0.4950    4.6430 C.3     2  LIG2       -0.0289
      3    C       29.8400   -0.6930    5.5370 C.3     2  LIG2       -0.0284
      4    C       29.0610   -0.9120    4.2580 C.3     2  LIG2       -0.0319
      5    C       28.4690    1.5680    4.9670 C.3     2  LIG2       -0.0294
      6    C       27.6630    1.9420    3.6940 C.3     2  LIG2       -0.0090
      7    C       27.5450   -1.2180    4.2090 C.3     2  LIG2       -0.0468
      8    C       28.9890    2.9030    5.5780 C.3     2  LIG2       -0.0404
      9    C       26.4140    1.0400    3.4080 C.3     2  LIG2        0.0664
     10    C       27.4030    3.4530    3.8230 C.3     2  LIG2       -0.0471
     11    C       26.7850   -0.4440    3.1080 C.3     2  LIG2       -0.0237
     12    C       31.3000   -1.1840    5.5550 C.3     2  LIG2       -0.0593
     13    C       29.1740   -0.8420    6.9260 C.3     2  LIG2       -0.0593
     14    C       28.6240    3.9940    4.5630 C.3     2  LIG2       -0.0498
     15    C       30.4780    2.9370    5.9840 C.3     2  LIG2       -0.0621
     16    C       25.2960    1.1090    4.4800 C.3     2  LIG2       -0.0358
     17    H       30.3500    0.9000    4.0330 H       2  LIG2        0.0312
     18    H       29.5910   -1.4460    3.4680 H       2  LIG2        0.0309
     19    H       27.7710    1.1710    5.6990 H       2  LIG2        0.0310
     20    H       28.3290    1.8370    2.8330 H       2  LIG2        0.0331
     21    H       27.4390   -2.2830    4.0020 H       2  LIG2        0.0269
     22    H       27.0550   -1.0700    5.1690 H       2  LIG2        0.0269
     23    H       28.4160    3.1040    6.4850 H       2  LIG2        0.0301
     24    H       27.2870    3.9330    2.8500 H       2  LIG2        0.0269
     25    H       26.5010    3.6610    4.3970 H       2  LIG2        0.0269
     26    H       27.3890   -0.4920    2.1980 H       2  LIG2        0.0293
     27    H       25.8730   -0.9990    2.8780 H       2  LIG2        0.0293
     28    H       31.3560   -2.2390    5.8230 H       2  LIG2        0.0235
     29    H       31.8920   -0.6220    6.2770 H       2  LIG2        0.0235
     30    H       31.7840   -1.0700    4.5830 H       2  LIG2        0.0235
     31    H       29.1840   -1.8830    7.2470 H       2  LIG2        0.0235
     32    H       28.1390   -0.5130    6.9680 H       2  LIG2        0.0235
     33    H       29.7160   -0.2610    7.6730 H       2  LIG2        0.0235
     34    H       28.4040    4.9460    5.0480 H       2  LIG2        0.0268
     35    H       29.4430    4.1670    3.8640 H       2  LIG2        0.0268
     36    H       31.1390    2.8080    5.1260 H       2  LIG2        0.0233
     37    H       30.7070    2.1520    6.7060 H       2  LIG2        0.0233
     38    H       30.7320    3.8900    6.4480 H       2  LIG2        0.0233
     39    H       25.6290    0.7590    5.4560 H       2  LIG2        0.0257
     40    H       24.4410    0.4900    4.2030 H       2  LIG2        0.0257
     41    H       24.9130    2.1210    4.6130 H       2  LIG2        0.0257
     42    H       25.0650    0.9560    2.0050 H       2  LIG2        0.2102
@<TRIPOS>BOND
     1    42     1    1
     2    26    11    1
     3     1     9    1
     4    20     6    1
     5    24    10    1
     6    27    11    1
     7    11     9    1
     8    11     7    1
     9     9     6    1
    10     9    16    1
    11    18     4    1
    12     6    10    1
    13     6     5    1
    14    10    25    1
    15    10    14    1
    16    35    14    1
    17    21     7    1
    18    17     2    1
    19    40    16    1
    20     7     4    1
    21     7    22    1
    22     4     2    1
    23     4     3    1
    24    16    41    1
    25    16    39    1
    26    14    34    1
    27    14     8    1
    28    30    12    1
    29     2     5    1
    30     2     3    1
    31     5     8    1
    32     5    19    1
    33    36    15    1
    34     3    12    1
    35     3    13    1
    36    12    28    1
    37    12    29    1
    38     8    15    1
    39     8    23    1
    40    15    38    1
    41    15    37    1
    42    13    32    1
    43    13    31    1
    44    13    33    1
@<TRIPOS>MOLECULE
11996452_11_run_11.pdb
 42 44 0 0 0
SMALL
GASTEIGER

@<TRIPOS>ATOM
      1    O       22.9520    3.1430    3.1100 O.3     2  LIG2       -0.3886
      2    C       27.4870    3.2450    3.6040 C.3     2  LIG2       -0.0289
      3    C       28.4020    2.4190    4.4880 C.3     2  LIG2       -0.0284
      4    C       27.2120    1.7520    3.8320 C.3     2  LIG2       -0.0319
      5    C       26.4560    4.2680    4.1480 C.3     2  LIG2       -0.0294
      6    C       25.1150    4.1610    3.3740 C.3     2  LIG2       -0.0090
      7    C       25.9370    1.3140    4.5910 C.3     2  LIG2       -0.0468
      8    C       26.8810    5.7650    4.1080 C.3     2  LIG2       -0.0404
      9    C       24.1010    3.1100    3.9410 C.3     2  LIG2        0.0664
     10    C       24.6100    5.6110    3.2620 C.3     2  LIG2       -0.0471
     11    C       24.6220    1.6430    3.8480 C.3     2  LIG2       -0.0237
     12    C       29.7910    2.0860    3.9130 C.3     2  LIG2       -0.0593
     13    C       28.4600    2.6460    6.0180 C.3     2  LIG2       -0.0593
     14    C       25.8780    6.4560    3.1760 C.3     2  LIG2       -0.0498
     15    C       28.3490    6.0520    3.7270 C.3     2  LIG2       -0.0621
     16    C       23.5790    3.4070    5.3700 C.3     2  LIG2       -0.0358
     17    H       27.8370    3.5120    2.6050 H       2  LIG2        0.0312
     18    H       27.4480    1.0490    3.0310 H       2  LIG2        0.0309
     19    H       26.2560    4.0550    5.1950 H       2  LIG2        0.0310
     20    H       25.3430    3.8560    2.3490 H       2  LIG2        0.0331
     21    H       25.9900    0.2320    4.7120 H       2  LIG2        0.0269
     22    H       25.8970    1.7060    5.6050 H       2  LIG2        0.0269
     23    H       26.7330    6.1840    5.1050 H       2  LIG2        0.0301
     24    H       23.9780    5.7560    2.3840 H       2  LIG2        0.0269
     25    H       24.0280    5.9050    4.1350 H       2  LIG2        0.0269
     26    H       24.7620    1.3710    2.7990 H       2  LIG2        0.0293
     27    H       23.8500    0.9670    4.2210 H       2  LIG2        0.0293
     28    H       30.1910    1.1740    4.3540 H       2  LIG2        0.0235
     29    H       30.4990    2.8930    4.1090 H       2  LIG2        0.0235
     30    H       29.7640    1.9390    2.8320 H       2  LIG2        0.0235
     31    H       28.8400    1.7590    6.5240 H       2  LIG2        0.0235
     32    H       27.5030    2.8810    6.4770 H       2  LIG2        0.0235
     33    H       29.1300    3.4730    6.2550 H       2  LIG2        0.0235
     34    H       25.6870    7.4880    3.4730 H       2  LIG2        0.0268
     35    H       26.2490    6.4780    2.1500 H       2  LIG2        0.0268
     36    H       28.5790    5.7250    2.7120 H       2  LIG2        0.0233
     37    H       29.0380    5.5500    4.4070 H       2  LIG2        0.0233
     38    H       28.5620    7.1200    3.7780 H       2  LIG2        0.0233
     39    H       24.3730    3.4040    6.1150 H       2  LIG2        0.0257
     40    H       22.8490    2.6600    5.6900 H       2  LIG2        0.0257
     41    H       23.0790    4.3730    5.4360 H       2  LIG2        0.0257
     42    H       22.2770    2.5850    3.5020 H       2  LIG2        0.2102
@<TRIPOS>BOND
     1    35    14    1
     2    20     6    1
     3    24    10    1
     4    17     2    1
     5    36    15    1
     6    26    11    1
     7    30    12    1
     8    18     4    1
     9     1    42    1
    10     1     9    1
    11    14    10    1
    12    14    34    1
    13    14     8    1
    14    10     6    1
    15    10    25    1
    16     6     9    1
    17     6     5    1
    18     2     4    1
    19     2     5    1
    20     2     3    1
    21    15    38    1
    22    15     8    1
    23    15    37    1
    24     4     3    1
    25     4     7    1
    26    11     9    1
    27    11    27    1
    28    11     7    1
    29    12    29    1
    30    12    28    1
    31    12     3    1
    32     9    16    1
    33     8     5    1
    34     8    23    1
    35     5    19    1
    36     3    13    1
    37     7    21    1
    38     7    22    1
    39    16    41    1
    40    16    40    1
    41    16    39    1
    42    13    33    1
    43    13    32    1
    44    13    31    1
@<TRIPOS>MOLECULE
11996452_11_run_17.pdb
 42 44 0 0 0
SMALL
GASTEIGER

@<TRIPOS>ATOM
      1    O       25.5720    8.1210    2.8450 O.3     2  LIG2       -0.3886
      2    C       25.0650    3.6230    3.4200 C.3     2  LIG2       -0.0289
      3    C       23.9450    2.8310    4.0690 C.3     2  LIG2       -0.0284
      4    C       23.6010    4.0500    3.2410 C.3     2  LIG2       -0.0319
      5    C       26.0120    4.5720    4.2000 C.3     2  LIG2       -0.0294
      6    C       26.2520    5.8830    3.4040 C.3     2  LIG2       -0.0090
      7    C       23.1160    5.3930    3.8360 C.3     2  LIG2       -0.0468
      8    C       27.4150    4.0030    4.5640 C.3     2  LIG2       -0.0404
      9    C       25.2020    7.0180    3.6550 C.3     2  LIG2        0.0664
     10    C       27.7260    6.2400    3.6710 C.3     2  LIG2       -0.0471
     11    C       23.7640    6.6370    3.1860 C.3     2  LIG2       -0.0237
     12    C       23.6310    1.4570    3.4480 C.3     2  LIG2       -0.0593
     13    C       23.7560    2.8170    5.6050 C.3     2  LIG2       -0.0593
     14    C       28.4270    4.8940    3.8330 C.3     2  LIG2       -0.0498
     15    C       27.6360    2.4990    4.2960 C.3     2  LIG2       -0.0621
     16    C       25.1670    7.5690    5.1030 C.3     2  LIG2       -0.0358
     17    H       25.5460    3.2060    2.5340 H       2  LIG2        0.0312
     18    H       23.1120    3.8500    2.2860 H       2  LIG2        0.0309
     19    H       25.5550    4.8370    5.1490 H       2  LIG2        0.0310
     20    H       26.2050    5.6420    2.3380 H       2  LIG2        0.0331
     21    H       22.0410    5.4510    3.6660 H       2  LIG2        0.0269
     22    H       23.2310    5.4390    4.9170 H       2  LIG2        0.0269
     23    H       27.5710    4.1530    5.6340 H       2  LIG2        0.0301
     24    H       28.1610    6.8170    2.8540 H       2  LIG2        0.0269
     25    H       27.8400    6.8280    4.5810 H       2  LIG2        0.0269
     26    H       23.7630    6.4790    2.1050 H       2  LIG2        0.0293
     27    H       23.0990    7.4860    3.3540 H       2  LIG2        0.0293
     28    H       22.5990    1.1670    3.6390 H       2  LIG2        0.0235
     29    H       24.2800    0.6840    3.8620 H       2  LIG2        0.0235
     30    H       23.7750    1.4520    2.3660 H       2  LIG2        0.0235
     31    H       22.7330    2.5470    5.8630 H       2  LIG2        0.0235
     32    H       23.9610    3.7660    6.0940 H       2  LIG2        0.0235
     33    H       24.4170    2.0810    6.0630 H       2  LIG2        0.0235
     34    H       29.3590    4.9970    4.3900 H       2  LIG2        0.0268
     35    H       28.6770    4.4790    2.8550 H       2  LIG2        0.0268
     36    H       27.5630    2.2580    3.2350 H       2  LIG2        0.0233
     37    H       26.9040    1.8920    4.8300 H       2  LIG2        0.0233
     38    H       28.6250    2.1860    4.6320 H       2  LIG2        0.0233
     39    H       24.8860    6.8120    5.8340 H       2  LIG2        0.0257
     40    H       24.4440    8.3810    5.2020 H       2  LIG2        0.0257
     41    H       26.1290    7.9760    5.4150 H       2  LIG2        0.0257
     42    H       26.4300    8.4380    3.1360 H       2  LIG2        0.2102
@<TRIPOS>BOND
     1    26    11    1
     2    18     4    1
     3    20     6    1
     4    30    12    1
     5    17     2    1
     6     1    42    1
     7     1     9    1
     8    24    10    1
     9    35    14    1
    10    11    27    1
    11    11     9    1
    12    11     7    1
    13    36    15    1
    14     4     2    1
    15     4     7    1
    16     4     3    1
    17     6     9    1
    18     6    10    1
    19     6     5    1
    20     2     3    1
    21     2     5    1
    22    12    28    1
    23    12    29    1
    24    12     3    1
    25     9    16    1
    26    21     7    1
    27    10    14    1
    28    10    25    1
    29    14    34    1
    30    14     8    1
    31     7    22    1
    32     3    13    1
    33     5     8    1
    34     5    19    1
    35    15     8    1
    36    15    38    1
    37    15    37    1
    38     8    23    1
    39    16    40    1
    40    16    41    1
    41    16    39    1
    42    13    31    1
    43    13    33    1
    44    13    32    1
@<TRIPOS>MOLECULE
11996452_11_run_17.pdb
 42 44 0 0 0
SMALL
GASTEIGER

@<TRIPOS>ATOM
      1    O       27.4020    5.7480    4.8550 O.3     2  LIG2       -0.3886
      2    C       27.6150    1.1900    4.7910 C.3     2  LIG2       -0.0289
      3    C       28.7870    0.2600    4.5380 C.3     2  LIG2       -0.0284
      4    C       29.0110    1.5290    5.3320 C.3     2  LIG2       -0.0319
      5    C       27.0060    2.1210    3.7090 C.3     2  LIG2       -0.0294
      6    C       26.6860    3.5180    4.3050 C.3     2  LIG2       -0.0090
      7    C       29.7630    2.7680    4.7910 C.3     2  LIG2       -0.0468
      8    C       25.7040    1.6180    3.0180 C.3     2  LIG2       -0.0404
      9    C       27.8690    4.5450    4.2650 C.3     2  LIG2        0.0664
     10    C       25.3790    3.9490    3.6160 C.3     2  LIG2       -0.0471
     11    C       29.0850    4.1140    5.1400 C.3     2  LIG2       -0.0237
     12    C       28.7910   -1.0630    5.3260 C.3     2  LIG2       -0.0593
     13    C       29.3780    0.0800    3.1200 C.3     2  LIG2       -0.0593
     14    C       24.6220    2.6460    3.3720 C.3     2  LIG2       -0.0498
     15    C       25.2780    0.1680    3.3310 C.3     2  LIG2       -0.0621
     16    C       28.3420    4.9450    2.8450 C.3     2  LIG2       -0.0358
     17    H       26.8770    0.8990    5.5400 H       2  LIG2        0.0312
     18    H       29.2050    1.3920    6.3970 H       2  LIG2        0.0309
     19    H       27.7230    2.2570    2.9050 H       2  LIG2        0.0310
     20    H       26.4240    3.3830    5.3580 H       2  LIG2        0.0331
     21    H       30.7540    2.7670    5.2450 H       2  LIG2        0.0269
     22    H       29.9460    2.7140    3.7210 H       2  LIG2        0.0269
     23    H       25.8550    1.6700    1.9380 H       2  LIG2        0.0301
     24    H       24.7970    4.6340    4.2350 H       2  LIG2        0.0269
     25    H       25.5690    4.4490    2.6670 H       2  LIG2        0.0269
     26    H       28.7820    4.0650    6.1880 H       2  LIG2        0.0293
     27    H       29.8490    4.8930    5.0970 H       2  LIG2        0.0293
     28    H       29.8050   -1.4430    5.4500 H       2  LIG2        0.0235
     29    H       28.2070   -1.8260    4.8100 H       2  LIG2        0.0235
     30    H       28.3630   -0.9490    6.3230 H       2  LIG2        0.0235
     31    H       30.4020   -0.2870    3.1740 H       2  LIG2        0.0235
     32    H       29.4020    0.9860    2.5210 H       2  LIG2        0.0235
     33    H       28.7970   -0.6510    2.5550 H       2  LIG2        0.0235
     34    H       23.8880    2.7580    2.5740 H       2  LIG2        0.0268
     35    H       24.0810    2.3500    4.2720 H       2  LIG2        0.0268
     36    H       25.0410    0.0300    4.3860 H       2  LIG2        0.0233
     37    H       26.0650   -0.5390    3.0680 H       2  LIG2        0.0233
     38    H       24.3890   -0.1070    2.7610 H       2  LIG2        0.0233
     39    H       28.7350    4.1010    2.2800 H       2  LIG2        0.0257
     40    H       29.1390    5.6900    2.8860 H       2  LIG2        0.0257
     41    H       27.5420    5.3850    2.2500 H       2  LIG2        0.0257
     42    H       26.8460    5.5220    5.6050 H       2  LIG2        0.2102
@<TRIPOS>BOND
     1    23     8    1
     2    41    16    1
     3    39    16    1
     4    32    13    1
     5    33    13    1
     6    34    14    1
     7    25    10    1
     8    38    15    1
     9    16    40    1
    10    16     9    1
    11    19     5    1
    12     8    15    1
    13     8    14    1
    14     8     5    1
    15    37    15    1
    16    13    31    1
    17    13     3    1
    18    15    36    1
    19    14    10    1
    20    14    35    1
    21    10    24    1
    22    10     6    1
    23     5     6    1
    24     5     2    1
    25    22     7    1
    26     9     6    1
    27     9     1    1
    28     9    11    1
    29     6    20    1
    30     3     2    1
    31     3    12    1
    32     3     4    1
    33     2     4    1
    34     2    17    1
    35     7    11    1
    36     7    21    1
    37     7     4    1
    38    29    12    1
    39     1    42    1
    40    27    11    1
    41    11    26    1
    42    12    28    1
    43    12    30    1
    44     4    18    1
