@<TRIPOS>MOLECULE
11996452_5_run_17.pdb
 42 44 0 0 0
SMALL
GASTEIGER

@<TRIPOS>ATOM
      1    O       27.3120    3.1740    5.9170 O.3     2  LIG2       -0.3886
      2    C       29.2640   -0.5120    5.1840 C.3     2  LIG2       -0.0289
      3    C       30.2930   -0.8410    4.1170 C.3     2  LIG2       -0.0284
      4    C       30.5880    0.2820    5.1010 C.3     2  LIG2       -0.0319
      5    C       27.8530    0.1460    5.0130 C.3     2  LIG2       -0.0294
      6    C       27.6670    1.4460    4.1860 C.3     2  LIG2       -0.0090
      7    C       30.5990    1.7810    4.7140 C.3     2  LIG2       -0.0468
      8    C       26.6900   -0.8140    4.6170 C.3     2  LIG2       -0.0404
      9    C       28.1760    2.7580    4.8700 C.3     2  LIG2        0.0664
     10    C       26.1760    1.4330    3.8020 C.3     2  LIG2       -0.0471
     11    C       29.5890    2.6340    5.5050 C.3     2  LIG2       -0.0237
     12    C       31.0690   -2.1560    4.3340 C.3     2  LIG2       -0.0593
     13    C       30.1270   -0.5570    2.6040 C.3     2  LIG2       -0.0593
     14    C       25.8380   -0.0410    3.5980 C.3     2  LIG2       -0.0498
     15    C       27.0960   -2.2060    4.0880 C.3     2  LIG2       -0.0621
     16    C       28.1700    3.9270    3.8570 C.3     2  LIG2       -0.0358
     17    H       29.2050   -1.2280    6.0050 H       2  LIG2        0.0312
     18    H       31.3590    0.0680    5.8420 H       2  LIG2        0.0309
     19    H       27.6060    0.4490    6.0330 H       2  LIG2        0.0310
     20    H       28.1900    1.3520    3.2450 H       2  LIG2        0.0331
     21    H       31.5940    2.1580    4.9540 H       2  LIG2        0.0269
     22    H       30.5000    1.9500    3.6450 H       2  LIG2        0.0269
     23    H       26.0730   -0.9870    5.5010 H       2  LIG2        0.0301
     24    H       25.5520    1.8500    4.5940 H       2  LIG2        0.0269
     25    H       25.9800    2.0110    2.8970 H       2  LIG2        0.0269
     26    H       29.5180    2.2110    6.5100 H       2  LIG2        0.0293
     27    H       30.0140    3.6290    5.6500 H       2  LIG2        0.0293
     28    H       32.0420   -2.1240    3.8460 H       2  LIG2        0.0235
     29    H       30.5180   -3.0040    3.9270 H       2  LIG2        0.0235
     30    H       31.2460   -2.3630    5.3900 H       2  LIG2        0.0235
     31    H       31.0990   -0.5890    2.1120 H       2  LIG2        0.0235
     32    H       29.7110    0.4050    2.3430 H       2  LIG2        0.0235
     33    H       29.5070   -1.3150    2.1270 H       2  LIG2        0.0235
     34    H       26.0840   -0.3380    2.5770 H       2  LIG2        0.0268
     35    H       24.7710   -0.2230    3.7370 H       2  LIG2        0.0268
     36    H       27.6900   -2.1380    3.1790 H       2  LIG2        0.0233
     37    H       26.2140   -2.8020    3.8550 H       2  LIG2        0.0233
     38    H       27.6720   -2.7630    4.8270 H       2  LIG2        0.0233
     39    H       28.8410    3.7310    3.0200 H       2  LIG2        0.0257
     40    H       28.4890    4.8670    4.3120 H       2  LIG2        0.0257
     41    H       27.1770    4.0990    3.4410 H       2  LIG2        0.0257
     42    H       26.9680    2.3930    6.3550 H       2  LIG2        0.2102
@<TRIPOS>BOND
     1    31    13    1
     2    33    13    1
     3    32    13    1
     4    34    14    1
     5    13     3    1
     6    25    10    1
     7    39    16    1
     8    36    15    1
     9    20     6    1
    10    41    16    1
    11    14    35    1
    12    14    10    1
    13    14     8    1
    14    22     7    1
    15    10     6    1
    16    10    24    1
    17    28    12    1
    18    37    15    1
    19    16    40    1
    20    16     9    1
    21    29    12    1
    22    15     8    1
    23    15    38    1
    24     3    12    1
    25     3     4    1
    26     3     2    1
    27     6     9    1
    28     6     5    1
    29    12    30    1
    30     8     5    1
    31     8    23    1
    32     7    21    1
    33     7     4    1
    34     7    11    1
    35     9    11    1
    36     9     1    1
    37     5     2    1
    38     5    19    1
    39     4     2    1
    40     4    18    1
    41     2    17    1
    42    11    27    1
    43    11    26    1
    44     1    42    1
@<TRIPOS>MOLECULE
11996452_5_run_19.pdb
 42 44 0 0 0
SMALL
GASTEIGER

@<TRIPOS>ATOM
      1    O       29.2310    3.4170    6.7230 O.3     2  LIG2       -0.3886
      2    C       27.5110   -0.1290    5.1740 C.3     2  LIG2       -0.0289
      3    C       28.1110   -1.1220    4.1950 C.3     2  LIG2       -0.0284
      4    C       28.8460   -0.8380    5.4970 C.3     2  LIG2       -0.0319
      5    C       27.3740    1.4250    5.0320 C.3     2  LIG2       -0.0294
      6    C       28.5820    2.3040    4.6140 C.3     2  LIG2       -0.0090
      7    C       30.1730   -0.0470    5.5790 C.3     2  LIG2       -0.0468
      8    C       26.1410    1.9350    4.2270 C.3     2  LIG2       -0.0404
      9    C       29.6720    2.5190    5.7160 C.3     2  LIG2        0.0664
     10    C       27.9350    3.5870    4.0610 C.3     2  LIG2       -0.0471
     11    C       30.0890    1.2180    6.4560 C.3     2  LIG2       -0.0237
     12    C       27.3850   -2.4790    4.1050 C.3     2  LIG2       -0.0593
     13    C       28.7360   -0.7540    2.8270 C.3     2  LIG2       -0.0593
     14    C       26.6500    3.1170    3.3860 C.3     2  LIG2       -0.0498
     15    C       25.4030    0.8920    3.3620 C.3     2  LIG2       -0.0621
     16    C       30.9270    3.1860    5.1050 C.3     2  LIG2       -0.0358
     17    H       26.6460   -0.4940    5.7310 H       2  LIG2        0.0312
     18    H       28.8300   -1.6450    6.2310 H       2  LIG2        0.0309
     19    H       27.1650    1.7400    6.0570 H       2  LIG2        0.0310
     20    H       29.0730    1.8580    3.7610 H       2  LIG2        0.0331
     21    H       30.9050   -0.7100    6.0430 H       2  LIG2        0.0269
     22    H       30.5990    0.1820    4.6050 H       2  LIG2        0.0269
     23    H       25.4060    2.3260    4.9340 H       2  LIG2        0.0301
     24    H       27.6990    4.2950    4.8560 H       2  LIG2        0.0269
     25    H       28.5860    4.1020    3.3520 H       2  LIG2        0.0269
     26    H       29.3940    1.0050    7.2720 H       2  LIG2        0.0293
     27    H       31.0550    1.3660    6.9430 H       2  LIG2        0.0293
     28    H       28.0620   -3.2660    3.7740 H       2  LIG2        0.0235
     29    H       26.5560   -2.4310    3.3980 H       2  LIG2        0.0235
     30    H       26.9730   -2.7930    5.0640 H       2  LIG2        0.0235
     31    H       29.3620   -1.5730    2.4730 H       2  LIG2        0.0235
     32    H       29.3770    0.1150    2.8150 H       2  LIG2        0.0235
     33    H       27.9670   -0.5960    2.0720 H       2  LIG2        0.0235
     34    H       26.8640    2.8060    2.3620 H       2  LIG2        0.0268
     35    H       25.9170    3.9240    3.3300 H       2  LIG2        0.0268
     36    H       26.0490    0.4680    2.5960 H       2  LIG2        0.0233
     37    H       24.5510    1.3440    2.8530 H       2  LIG2        0.0233
     38    H       25.0150    0.0730    3.9670 H       2  LIG2        0.0233
     39    H       31.3790    2.5550    4.3380 H       2  LIG2        0.0257
     40    H       31.6950    3.3810    5.8550 H       2  LIG2        0.0257
     41    H       30.6920    4.1430    4.6380 H       2  LIG2        0.0257
     42    H       29.1290    4.2870    6.3300 H       2  LIG2        0.2102
@<TRIPOS>BOND
     1    33    13    1
     2    34    14    1
     3    31    13    1
     4    36    15    1
     5    32    13    1
     6    13     3    1
     7    37    15    1
     8    35    14    1
     9    25    10    1
    10    15    38    1
    11    15     8    1
    12    14    10    1
    13    14     8    1
    14    29    12    1
    15    20     6    1
    16    28    12    1
    17    10     6    1
    18    10    24    1
    19    12     3    1
    20    12    30    1
    21     3     2    1
    22     3     4    1
    23     8    23    1
    24     8     5    1
    25    39    16    1
    26    22     7    1
    27     6     5    1
    28     6     9    1
    29    41    16    1
    30     5     2    1
    31     5    19    1
    32    16     9    1
    33    16    40    1
    34     2     4    1
    35     2    17    1
    36     4     7    1
    37     4    18    1
    38     7    21    1
    39     7    11    1
    40     9    11    1
    41     9     1    1
    42    42     1    1
    43    11    27    1
    44    11    26    1
@<TRIPOS>MOLECULE
11996452_5_run_14.pdb
 42 44 0 0 0
SMALL
GASTEIGER

@<TRIPOS>ATOM
      1    O       25.7690    2.1150    2.4590 O.3     2  LIG2       -0.3886
      2    C       29.3490    0.2950    3.8040 C.3     2  LIG2       -0.0289
      3    C       29.5300   -0.7370    4.9020 C.3     2  LIG2       -0.0284
      4    C       28.6080   -1.0590    3.7350 C.3     2  LIG2       -0.0319
      5    C       28.6140    1.6770    3.8720 C.3     2  LIG2       -0.0294
      6    C       27.1830    1.7990    4.4610 C.3     2  LIG2       -0.0090
      7    C       27.0660   -1.1350    3.8560 C.3     2  LIG2       -0.0468
      8    C       29.4420    2.8690    4.4390 C.3     2  LIG2       -0.0404
      9    C       26.0320    1.2510    3.5540 C.3     2  LIG2        0.0664
     10    C       27.0690    3.2830    4.8550 C.3     2  LIG2       -0.0471
     11    C       26.3220   -0.1460    2.9380 C.3     2  LIG2       -0.0237
     12    C       30.8930   -1.4570    4.9110 C.3     2  LIG2       -0.0593
     13    C       28.9810   -0.6070    6.3450 C.3     2  LIG2       -0.0593
     14    C       28.4690    3.6750    5.3160 C.3     2  LIG2       -0.0498
     15    C       30.7360    2.5100    5.1990 C.3     2  LIG2       -0.0621
     16    C       24.7060    1.1950    4.3480 C.3     2  LIG2       -0.0358
     17    H       30.1940    0.3960    3.1210 H       2  LIG2        0.0312
     18    H       28.9790   -1.8090    3.0360 H       2  LIG2        0.0309
     19    H       28.4830    1.9290    2.8170 H       2  LIG2        0.0310
     20    H       27.1340    1.2650    5.3990 H       2  LIG2        0.0331
     21    H       26.7770   -2.1400    3.5440 H       2  LIG2        0.0269
     22    H       26.7100   -1.0590    4.8800 H       2  LIG2        0.0269
     23    H       29.7400    3.5080    3.6050 H       2  LIG2        0.0301
     24    H       26.7700    3.9030    4.0090 H       2  LIG2        0.0269
     25    H       26.3350    3.4420    5.6480 H       2  LIG2        0.0269
     26    H       26.9110   -0.0420    2.0220 H       2  LIG2        0.0293
     27    H       25.3860   -0.6070    2.6170 H       2  LIG2        0.0293
     28    H       30.8170   -2.4400    5.3760 H       2  LIG2        0.0235
     29    H       31.6340   -0.8810    5.4650 H       2  LIG2        0.0235
     30    H       31.2880   -1.6090    3.9060 H       2  LIG2        0.0235
     31    H       28.9670   -1.5850    6.8250 H       2  LIG2        0.0235
     32    H       27.9720   -0.2330    6.4380 H       2  LIG2        0.0235
     33    H       29.6180    0.0340    6.9520 H       2  LIG2        0.0235
     34    H       28.5950    3.4230    6.3710 H       2  LIG2        0.0268
     35    H       28.6290    4.7500    5.2210 H       2  LIG2        0.0268
     36    H       30.5360    1.8990    6.0760 H       2  LIG2        0.0233
     37    H       31.2470    3.4100    5.5400 H       2  LIG2        0.0233
     38    H       31.4360    1.9680    4.5620 H       2  LIG2        0.0233
     39    H       24.7810    0.5180    5.2000 H       2  LIG2        0.0257
     40    H       23.8730    0.8480    3.7330 H       2  LIG2        0.0257
     41    H       24.4240    2.1740    4.7370 H       2  LIG2        0.0257
     42    H       25.0990    1.7090    1.9060 H       2  LIG2        0.2102
@<TRIPOS>BOND
     1    42     1    1
     2    26    11    1
     3     1     9    1
     4    27    11    1
     5    19     5    1
     6    11     9    1
     7    11     7    1
     8    18     4    1
     9    17     2    1
    10    21     7    1
    11     9    16    1
    12     9     6    1
    13    23     8    1
    14    40    16    1
    15     4     2    1
    16     4     7    1
    17     4     3    1
    18     2     5    1
    19     2     3    1
    20     7    22    1
    21     5     8    1
    22     5     6    1
    23    30    12    1
    24    24    10    1
    25    16    41    1
    26    16    39    1
    27     8    15    1
    28     8    14    1
    29     6    10    1
    30     6    20    1
    31    38    15    1
    32    10    14    1
    33    10    25    1
    34     3    12    1
    35     3    13    1
    36    12    28    1
    37    12    29    1
    38    15    37    1
    39    15    36    1
    40    35    14    1
    41    14    34    1
    42    13    32    1
    43    13    31    1
    44    13    33    1
@<TRIPOS>MOLECULE
11996452_5_run_2.pdb
 42 44 0 0 0
SMALL
GASTEIGER

@<TRIPOS>ATOM
      1    O       30.0990    0.5470    3.9300 O.3     2  LIG2       -0.3886
      2    C       26.6700    2.9420    3.2630 C.3     2  LIG2       -0.0289
      3    C       25.9630    3.8720    4.2320 C.3     2  LIG2       -0.0284
      4    C       27.4360    4.1070    3.9300 C.3     2  LIG2       -0.0319
      5    C       27.0550    1.4360    3.4560 C.3     2  LIG2       -0.0294
      6    C       27.7960    0.9520    4.7310 C.3     2  LIG2       -0.0090
      7    C       28.5730    3.8400    4.9460 C.3     2  LIG2       -0.0468
      8    C       25.9320    0.3960    3.1610 C.3     2  LIG2       -0.0404
      9    C       29.3120    1.3310    4.8140 C.3     2  LIG2        0.0664
     10    C       27.4840   -0.5540    4.7930 C.3     2  LIG2       -0.0471
     11    C       29.6140    2.8130    4.4570 C.3     2  LIG2       -0.0237
     12    C       24.9710    4.8610    3.5900 C.3     2  LIG2       -0.0593
     13    C       25.4900    3.4810    5.6540 C.3     2  LIG2       -0.0593
     14    C       26.0650   -0.6830    4.2480 C.3     2  LIG2       -0.0498
     15    C       24.4920    0.9440    3.0700 C.3     2  LIG2       -0.0621
     16    C       29.8640    1.0220    6.2250 C.3     2  LIG2       -0.0358
     17    H       26.4210    3.0940    2.2110 H       2  LIG2        0.0312
     18    H       27.6570    4.9860    3.3240 H       2  LIG2        0.0309
     19    H       27.7800    1.2710    2.6550 H       2  LIG2        0.0310
     20    H       27.3140    1.3650    5.6050 H       2  LIG2        0.0331
     21    H       29.0980    4.7860    5.0840 H       2  LIG2        0.0269
     22    H       28.2130    3.5860    5.9390 H       2  LIG2        0.0269
     23    H       26.1450   -0.0760    2.1990 H       2  LIG2        0.0301
     24    H       28.1720   -1.1340    4.1760 H       2  LIG2        0.0269
     25    H       27.5520   -0.9460    5.8090 H       2  LIG2        0.0269
     26    H       29.7070    2.9310    3.3740 H       2  LIG2        0.0293
     27    H       30.5910    3.0950    4.8540 H       2  LIG2        0.0293
     28    H       24.8480    5.7520    4.2060 H       2  LIG2        0.0235
     29    H       23.9890    4.4030    3.4660 H       2  LIG2        0.0235
     30    H       25.2980    5.1960    2.6050 H       2  LIG2        0.0235
     31    H       25.3090    4.3790    6.2450 H       2  LIG2        0.0235
     32    H       26.1800    2.8930    6.2410 H       2  LIG2        0.0235
     33    H       24.5490    2.9320    5.6190 H       2  LIG2        0.0235
     34    H       25.3450   -0.5200    5.0510 H       2  LIG2        0.0268
     35    H       25.8840   -1.6840    3.8530 H       2  LIG2        0.0268
     36    H       24.1730    1.4050    4.0020 H       2  LIG2        0.0233
     37    H       23.7870    0.1430    2.8470 H       2  LIG2        0.0233
     38    H       24.3960    1.6850    2.2760 H       2  LIG2        0.0233
     39    H       29.3530    1.6090    6.9900 H       2  LIG2        0.0257
     40    H       30.9300    1.2450    6.3070 H       2  LIG2        0.0257
     41    H       29.7400   -0.0290    6.4890 H       2  LIG2        0.0257
     42    H       31.0130    0.8280    4.0090 H       2  LIG2        0.2102
@<TRIPOS>BOND
     1    23     8    1
     2    17     2    1
     3    38    15    1
     4    30    12    1
     5    19     5    1
     6    37    15    1
     7    15     8    1
     8    15    36    1
     9     8     5    1
    10     8    14    1
    11     2     5    1
    12     2     4    1
    13     2     3    1
    14    18     4    1
    15    26    11    1
    16     5     6    1
    17    29    12    1
    18    12    28    1
    19    12     3    1
    20    35    14    1
    21     4     3    1
    22     4     7    1
    23     1    42    1
    24     1     9    1
    25    24    10    1
    26     3    13    1
    27    14    10    1
    28    14    34    1
    29    11     9    1
    30    11    27    1
    31    11     7    1
    32     6    10    1
    33     6     9    1
    34     6    20    1
    35    10    25    1
    36     9    16    1
    37     7    21    1
    38     7    22    1
    39    33    13    1
    40    13    32    1
    41    13    31    1
    42    16    40    1
    43    16    41    1
    44    16    39    1
@<TRIPOS>MOLECULE
11996452_5_run_10.pdb
 42 44 0 0 0
SMALL
GASTEIGER

@<TRIPOS>ATOM
      1    O       28.3490   -1.4920    2.2470 O.3     2  LIG2       -0.3886
      2    C       29.4050    2.0600    4.2980 C.3     2  LIG2       -0.0289
      3    C       29.7680    2.2340    5.7610 C.3     2  LIG2       -0.0284
      4    C       30.5880    1.2760    4.9100 C.3     2  LIG2       -0.0319
      5    C       28.1420    1.3690    3.6780 C.3     2  LIG2       -0.0294
      6    C       27.6910   -0.0430    4.1380 C.3     2  LIG2       -0.0090
      7    C       30.5360   -0.2640    5.0590 C.3     2  LIG2       -0.0468
      8    C       26.8580    2.2460    3.5800 C.3     2  LIG2       -0.0404
      9    C       28.5710   -1.2310    3.6250 C.3     2  LIG2        0.0664
     10    C       26.2030   -0.1030    3.7490 C.3     2  LIG2       -0.0471
     11    C       30.1000   -0.9980    3.7760 C.3     2  LIG2       -0.0237
     12    C       30.4420    3.5740    6.1170 C.3     2  LIG2       -0.0593
     13    C       28.9230    1.7220    6.9540 C.3     2  LIG2       -0.0593
     14    C       25.6880    1.3190    3.9510 C.3     2  LIG2       -0.0498
     15    C       26.8450    3.5460    4.4120 C.3     2  LIG2       -0.0621
     16    C       28.1780   -2.5400    4.3500 C.3     2  LIG2       -0.0358
     17    H       29.6860    2.8910    3.6490 H       2  LIG2        0.0312
     18    H       31.5990    1.6070    4.6690 H       2  LIG2        0.0309
     19    H       28.4380    1.2210    2.6370 H       2  LIG2        0.0310
     20    H       27.6920   -0.0870    5.2170 H       2  LIG2        0.0331
     21    H       31.5520   -0.5910    5.2850 H       2  LIG2        0.0269
     22    H       29.9520   -0.5950    5.9140 H       2  LIG2        0.0269
     23    H       26.7250    2.5450    2.5380 H       2  LIG2        0.0301
     24    H       26.0690   -0.4020    2.7090 H       2  LIG2        0.0269
     25    H       25.6460   -0.8130    4.3640 H       2  LIG2        0.0269
     26    H       30.4830   -0.4280    2.9260 H       2  LIG2        0.0293
     27    H       30.6230   -1.9550    3.7300 H       2  LIG2        0.0293
     28    H       31.0640    3.4780    7.0070 H       2  LIG2        0.0235
     29    H       29.6960    4.3450    6.3110 H       2  LIG2        0.0235
     30    H       31.0840    3.9410    5.3160 H       2  LIG2        0.0235
     31    H       29.5360    1.6890    7.8550 H       2  LIG2        0.0235
     32    H       28.5140    0.7280    6.8560 H       2  LIG2        0.0235
     33    H       28.0910    2.3930    7.1640 H       2  LIG2        0.0235
     34    H       25.3920    1.4610    4.9920 H       2  LIG2        0.0268
     35    H       24.8070    1.5100    3.3370 H       2  LIG2        0.0268
     36    H       26.9360    3.3480    5.4770 H       2  LIG2        0.0233
     37    H       25.9140    4.0920    4.2620 H       2  LIG2        0.0233
     38    H       27.6570    4.2140    4.1220 H       2  LIG2        0.0233
     39    H       28.3490   -2.4670    5.4240 H       2  LIG2        0.0257
     40    H       28.7510   -3.3970    3.9900 H       2  LIG2        0.0257
     41    H       27.1240   -2.7830    4.2070 H       2  LIG2        0.0257
     42    H       27.4790   -1.8840    2.1490 H       2  LIG2        0.2102
@<TRIPOS>BOND
     1    42     1    1
     2     1     9    1
     3    23     8    1
     4    19     5    1
     5    24    10    1
     6    26    11    1
     7    35    14    1
     8     8     5    1
     9     8    14    1
    10     8    15    1
    11     9    11    1
    12     9     6    1
    13     9    16    1
    14    17     2    1
    15     5     6    1
    16     5     2    1
    17    27    11    1
    18    10    14    1
    19    10     6    1
    20    10    25    1
    21    11     7    1
    22    14    34    1
    23    40    16    1
    24    38    15    1
    25     6    20    1
    26    41    16    1
    27    37    15    1
    28     2     4    1
    29     2     3    1
    30    16    39    1
    31    15    36    1
    32    18     4    1
    33     4     7    1
    34     4     3    1
    35     7    21    1
    36     7    22    1
    37    30    12    1
    38     3    12    1
    39     3    13    1
    40    12    29    1
    41    12    28    1
    42    32    13    1
    43    13    33    1
    44    13    31    1
@<TRIPOS>MOLECULE
11996452_5_run_15.pdb
 42 44 0 0 0
SMALL
GASTEIGER

@<TRIPOS>ATOM
      1    O       29.6210   -0.2930    6.0940 O.3     2  LIG2       -0.3886
      2    C       26.0560    1.6060    4.8190 C.3     2  LIG2       -0.0289
      3    C       25.2600    1.3670    3.5490 C.3     2  LIG2       -0.0284
      4    C       25.5030    0.2000    4.4940 C.3     2  LIG2       -0.0319
      5    C       27.5840    1.9150    4.9730 C.3     2  LIG2       -0.0294
      6    C       28.6560    1.0510    4.2570 C.3     2  LIG2       -0.0090
      7    C       26.4530   -0.9800    4.1750 C.3     2  LIG2       -0.0468
      8    C       28.0060    3.4050    4.7910 C.3     2  LIG2       -0.0404
      9    C       28.9000   -0.3660    4.8730 C.3     2  LIG2        0.0664
     10    C       29.8910    1.9680    4.1930 C.3     2  LIG2       -0.0471
     11    C       27.5960   -1.1500    5.1930 C.3     2  LIG2       -0.0237
     12    C       23.8350    1.9540    3.5450 C.3     2  LIG2       -0.0593
     13    C       25.8490    1.3730    2.1160 C.3     2  LIG2       -0.0593
     14    C       29.3260    3.3730    4.0040 C.3     2  LIG2       -0.0498
     15    C       26.9680    4.3380    4.1320 C.3     2  LIG2       -0.0621
     16    C       29.7880   -1.2140    3.9320 C.3     2  LIG2       -0.0358
     17    H       25.5230    2.1430    5.6050 H       2  LIG2        0.0312
     18    H       24.6290   -0.1460    5.0490 H       2  LIG2        0.0309
     19    H       27.7610    1.7220    6.0340 H       2  LIG2        0.0310
     20    H       28.3710    0.9070    3.2250 H       2  LIG2        0.0331
     21    H       25.8490   -1.8880    4.2160 H       2  LIG2        0.0269
     22    H       26.8360   -0.9610    3.1580 H       2  LIG2        0.0269
     23    H       28.2180    3.8250    5.7760 H       2  LIG2        0.0301
     24    H       30.4740    1.9240    5.1140 H       2  LIG2        0.0269
     25    H       30.5600    1.7000    3.3730 H       2  LIG2        0.0269
     26    H       27.2090   -0.8590    6.1730 H       2  LIG2        0.0293
     27    H       27.8220   -2.2140    5.2870 H       2  LIG2        0.0293
     28    H       23.1840    1.4040    2.8660 H       2  LIG2        0.0235
     29    H       23.8450    2.9980    3.2270 H       2  LIG2        0.0235
     30    H       23.3710    1.9220    4.5310 H       2  LIG2        0.0235
     31    H       25.1630    0.8760    1.4310 H       2  LIG2        0.0235
     32    H       26.7930    0.8640    1.9870 H       2  LIG2        0.0235
     33    H       25.9800    2.3900    1.7480 H       2  LIG2        0.0235
     34    H       29.1540    3.5610    2.9430 H       2  LIG2        0.0268
     35    H       30.0280    4.1300    4.3550 H       2  LIG2        0.0268
     36    H       26.7170    4.0200    3.1230 H       2  LIG2        0.0233
     37    H       27.3530    5.3560    4.0640 H       2  LIG2        0.0233
     38    H       26.0460    4.3830    4.7110 H       2  LIG2        0.0233
     39    H       29.3080   -1.3720    2.9660 H       2  LIG2        0.0257
     40    H       30.0060   -2.1990    4.3490 H       2  LIG2        0.0257
     41    H       30.7490   -0.7330    3.7400 H       2  LIG2        0.0257
     42    H       30.5280   -0.0510    5.8960 H       2  LIG2        0.2102
@<TRIPOS>BOND
     1    31    13    1
     2    33    13    1
     3    32    13    1
     4    13     3    1
     5    28    12    1
     6    34    14    1
     7    39    16    1
     8    36    15    1
     9    22     7    1
    10    20     6    1
    11    29    12    1
    12    25    10    1
    13    12     3    1
    14    12    30    1
    15     3     4    1
    16     3     2    1
    17    41    16    1
    18    16    40    1
    19    16     9    1
    20    14    10    1
    21    14    35    1
    22    14     8    1
    23    37    15    1
    24    15    38    1
    25    15     8    1
    26     7    21    1
    27     7     4    1
    28     7    11    1
    29    10     6    1
    30    10    24    1
    31     6     9    1
    32     6     5    1
    33     4     2    1
    34     4    18    1
    35     8     5    1
    36     8    23    1
    37     2     5    1
    38     2    17    1
    39     9    11    1
    40     9     1    1
    41     5    19    1
    42    11    27    1
    43    11    26    1
    44    42     1    1
@<TRIPOS>MOLECULE
11996452_5_run_5.pdb
 42 44 0 0 0
SMALL
GASTEIGER

@<TRIPOS>ATOM
      1    O       27.4030    4.0760    3.5420 O.3     2  LIG2       -0.3886
      2    C       28.5700    0.0060    3.4730 C.3     2  LIG2       -0.0289
      3    C       27.8390   -1.1970    4.0430 C.3     2  LIG2       -0.0284
      4    C       27.1340   -0.3290    3.0110 C.3     2  LIG2       -0.0319
      5    C       28.9540    1.3460    4.1880 C.3     2  LIG2       -0.0294
      6    C       27.9090    2.1500    5.0060 C.3     2  LIG2       -0.0090
      7    C       25.9470    0.6070    3.3440 C.3     2  LIG2       -0.0468
      8    C       30.2680    1.3260    5.0260 C.3     2  LIG2       -0.0404
      9    C       26.8460    2.9260    4.1600 C.3     2  LIG2        0.0664
     10    C       28.7610    3.0120    5.9540 C.3     2  LIG2       -0.0471
     11    C       26.2130    2.0880    3.0140 C.3     2  LIG2       -0.0237
     12    C       28.3430   -2.5680    3.5480 C.3     2  LIG2       -0.0593
     13    C       27.3080   -1.3100    5.4930 C.3     2  LIG2       -0.0593
     14    C       29.9690    2.1440    6.2930 C.3     2  LIG2       -0.0498
     15    C       30.8490   -0.0640    5.3640 C.3     2  LIG2       -0.0621
     16    C       25.7240    3.4680    5.0780 C.3     2  LIG2       -0.0358
     17    H       29.3550   -0.2290    2.7520 H       2  LIG2        0.0312
     18    H       27.0070   -0.7790    2.0250 H       2  LIG2        0.0309
     19    H       29.1900    2.0040    3.3480 H       2  LIG2        0.0310
     20    H       27.3710    1.4790    5.6590 H       2  LIG2        0.0331
     21    H       25.1100    0.2850    2.7220 H       2  LIG2        0.0269
     22    H       25.5820    0.4940    4.3620 H       2  LIG2        0.0269
     23    H       31.0410    1.8560    4.4660 H       2  LIG2        0.0301
     24    H       29.0910    3.9340    5.4740 H       2  LIG2        0.0269
     25    H       28.2140    3.2950    6.8560 H       2  LIG2        0.0269
     26    H       26.8490    2.1180    2.1270 H       2  LIG2        0.0293
     27    H       25.2730    2.5470    2.7000 H       2  LIG2        0.0293
     28    H       27.5570   -3.3200    3.6050 H       2  LIG2        0.0235
     29    H       29.1830   -2.9140    4.1510 H       2  LIG2        0.0235
     30    H       28.6820   -2.5360    2.5120 H       2  LIG2        0.0235
     31    H       26.5670   -2.1070    5.5550 H       2  LIG2        0.0235
     32    H       26.8130   -0.4350    5.8870 H       2  LIG2        0.0235
     33    H       28.1070   -1.5670    6.1870 H       2  LIG2        0.0235
     34    H       29.7290    1.4900    7.1330 H       2  LIG2        0.0268
     35    H       30.8210    2.7550    6.5950 H       2  LIG2        0.0268
     36    H       30.1590   -0.6590    5.9590 H       2  LIG2        0.0233
     37    H       31.7710    0.0320    5.9370 H       2  LIG2        0.0233
     38    H       31.0900   -0.6270    4.4620 H       2  LIG2        0.0233
     39    H       25.1930    2.6570    5.5780 H       2  LIG2        0.0257
     40    H       24.9810    4.0450    4.5230 H       2  LIG2        0.0257
     41    H       26.1170    4.1250    5.8550 H       2  LIG2        0.0257
     42    H       27.6050    4.7200    4.2240 H       2  LIG2        0.2102
@<TRIPOS>BOND
     1    18     4    1
     2    26    11    1
     3    30    12    1
     4    27    11    1
     5    21     7    1
     6    17     2    1
     7     4     7    1
     8     4     2    1
     9     4     3    1
    10    11     7    1
    11    11     9    1
    12     7    22    1
    13    19     5    1
    14     2     3    1
    15     2     5    1
    16     1     9    1
    17     1    42    1
    18    12    28    1
    19    12     3    1
    20    12    29    1
    21     3    13    1
    22     9     6    1
    23     9    16    1
    24     5     6    1
    25     5     8    1
    26    38    15    1
    27    23     8    1
    28    40    16    1
    29     6    20    1
    30     6    10    1
    31     8    15    1
    32     8    14    1
    33    16    39    1
    34    16    41    1
    35    15    37    1
    36    15    36    1
    37    24    10    1
    38    13    31    1
    39    13    32    1
    40    13    33    1
    41    10    14    1
    42    10    25    1
    43    14    35    1
    44    14    34    1
@<TRIPOS>MOLECULE
11996452_5_run_9.pdb
 42 44 0 0 0
SMALL
GASTEIGER

@<TRIPOS>ATOM
      1    O       29.1670    2.5080    6.3130 O.3     2  LIG2       -0.3886
      2    C       25.3940    1.8920    4.4910 C.3     2  LIG2       -0.0289
      3    C       25.0850    1.2500    3.1500 C.3     2  LIG2       -0.0284
      4    C       25.8490    0.4450    4.1910 C.3     2  LIG2       -0.0319
      5    C       26.3890    3.0590    4.8110 C.3     2  LIG2       -0.0294
      6    C       27.8500    3.0360    4.2890 C.3     2  LIG2       -0.0090
      7    C       27.3500    0.0880    4.0680 C.3     2  LIG2       -0.0468
      8    C       25.8490    4.5040    4.5850 C.3     2  LIG2       -0.0404
      9    C       28.8110    2.0410    5.0200 C.3     2  LIG2        0.0664
     10    C       28.2790    4.5140    4.3180 C.3     2  LIG2       -0.0471
     11    C       28.2130    0.6210    5.2280 C.3     2  LIG2       -0.0237
     12    C       23.6110    0.8550    2.9330 C.3     2  LIG2       -0.0593
     13    C       25.7400    1.6440    1.8030 C.3     2  LIG2       -0.0593
     14    C       27.0150    5.2950    3.9700 C.3     2  LIG2       -0.0498
     15    C       24.5610    4.6340    3.7450 C.3     2  LIG2       -0.0621
     16    C       30.1480    1.9250    4.2520 C.3     2  LIG2       -0.0358
     17    H       24.5430    1.9790    5.1680 H       2  LIG2        0.0312
     18    H       25.2940   -0.3710    4.6560 H       2  LIG2        0.0309
     19    H       26.4990    2.9870    5.8950 H       2  LIG2        0.0310
     20    H       27.8540    2.7730    3.2410 H       2  LIG2        0.0331
     21    H       27.4160   -1.0010    4.0940 H       2  LIG2        0.0269
     22    H       27.7800    0.3590    3.1060 H       2  LIG2        0.0269
     23    H       25.6290    4.9440    5.5600 H       2  LIG2        0.0301
     24    H       28.6380    4.8110    5.3040 H       2  LIG2        0.0269
     25    H       29.0790    4.7240    3.6050 H       2  LIG2        0.0269
     26    H       27.5990    0.5960    6.1310 H       2  LIG2        0.0293
     27    H       29.0180   -0.0920    5.4170 H       2  LIG2        0.0293
     28    H       23.5220    0.0390    2.2170 H       2  LIG2        0.0235
     29    H       23.0340    1.6990    2.5530 H       2  LIG2        0.0235
     30    H       23.1300    0.5260    3.8550 H       2  LIG2        0.0235
     31    H       25.5930    0.8480    1.0730 H       2  LIG2        0.0235
     32    H       26.8070    1.8120    1.8240 H       2  LIG2        0.0235
     33    H       25.2810    2.5410    1.3890 H       2  LIG2        0.0235
     34    H       26.9110    5.3650    2.8860 H       2  LIG2        0.0268
     35    H       27.0630    6.3150    4.3550 H       2  LIG2        0.0268
     36    H       24.6930    4.2520    2.7350 H       2  LIG2        0.0233
     37    H       24.2600    5.6790    3.6600 H       2  LIG2        0.0233
     38    H       23.7290    4.0990    4.2030 H       2  LIG2        0.0233
     39    H       29.9970    1.5310    3.2470 H       2  LIG2        0.0257
     40    H       30.8550    1.2630    4.7550 H       2  LIG2        0.0257
     41    H       30.6420    2.8930    4.1480 H       2  LIG2        0.0257
     42    H       29.7660    1.8720    6.7100 H       2  LIG2        0.2102
@<TRIPOS>BOND
     1    31    13    1
     2    33    13    1
     3    13    32    1
     4    13     3    1
     5    28    12    1
     6    29    12    1
     7    36    15    1
     8    34    14    1
     9    12     3    1
    10    12    30    1
    11    22     7    1
    12     3     4    1
    13     3     2    1
    14    20     6    1
    15    39    16    1
    16    25    10    1
    17    37    15    1
    18    15    38    1
    19    15     8    1
    20    14    10    1
    21    14    35    1
    22    14     8    1
    23     7    21    1
    24     7     4    1
    25     7    11    1
    26    41    16    1
    27     4     2    1
    28     4    18    1
    29    16    40    1
    30    16     9    1
    31     6    10    1
    32     6     5    1
    33     6     9    1
    34    10    24    1
    35     2     5    1
    36     2    17    1
    37     8     5    1
    38     8    23    1
    39     5    19    1
    40     9    11    1
    41     9     1    1
    42    11    27    1
    43    11    26    1
    44     1    42    1
@<TRIPOS>MOLECULE
11996452_5_run_16.pdb
 42 44 0 0 0
SMALL
GASTEIGER

@<TRIPOS>ATOM
      1    O       25.5700    7.5130    4.6810 O.3     2  LIG2       -0.3886
      2    C       26.0260    3.3100    4.9300 C.3     2  LIG2       -0.0289
      3    C       26.4910    2.3440    3.8550 C.3     2  LIG2       -0.0284
      4    C       27.4090    3.4870    4.2620 C.3     2  LIG2       -0.0319
      5    C       24.8890    4.3850    4.8550 C.3     2  LIG2       -0.0294
      6    C       24.8080    5.3880    3.6740 C.3     2  LIG2       -0.0090
      7    C       27.7110    4.7080    3.3590 C.3     2  LIG2       -0.0468
      8    C       23.4410    3.8720    5.1160 C.3     2  LIG2       -0.0404
      9    C       25.8690    6.5380    3.6930 C.3     2  LIG2        0.0664
     10    C       23.3370    5.8430    3.6730 C.3     2  LIG2       -0.0471
     11    C       27.3170    6.0580    3.9890 C.3     2  LIG2       -0.0237
     12    C       26.8870    0.9410    4.3570 C.3     2  LIG2       -0.0593
     13    C       25.9050    2.2580    2.4240 C.3     2  LIG2       -0.0593
     14    C       22.5470    4.6120    4.1070 C.3     2  LIG2       -0.0498
     15    C       23.2290    2.3450    5.0580 C.3     2  LIG2       -0.0621
     16    C       25.8490    7.3070    2.3510 C.3     2  LIG2       -0.0358
     17    H       26.0510    2.9160    5.9480 H       2  LIG2        0.0312
     18    H       28.2920    3.2000    4.8340 H       2  LIG2        0.0309
     19    H       25.1020    5.0170    5.7200 H       2  LIG2        0.0310
     20    H       24.9290    4.8560    2.7410 H       2  LIG2        0.0331
     21    H       28.7920    4.7270    3.2100 H       2  LIG2        0.0269
     22    H       27.3040    4.6130    2.3560 H       2  LIG2        0.0269
     23    H       23.1400    4.1880    6.1170 H       2  LIG2        0.0301
     24    H       23.1660    6.6590    4.3750 H       2  LIG2        0.0269
     25    H       23.0150    6.1900    2.6890 H       2  LIG2        0.0269
     26    H       27.4770    5.9760    5.0670 H       2  LIG2        0.0293
     27    H       28.0300    6.8160    3.6570 H       2  LIG2        0.0293
     28    H       27.6030    0.4690    3.6830 H       2  LIG2        0.0235
     29    H       26.0140    0.2910    4.4270 H       2  LIG2        0.0235
     30    H       27.3480    0.9690    5.3450 H       2  LIG2        0.0235
     31    H       26.5990    1.7290    1.7700 H       2  LIG2        0.0235
     32    H       25.7160    3.1990    1.9300 H       2  LIG2        0.0235
     33    H       24.9720    1.6960    2.4130 H       2  LIG2        0.0235
     34    H       22.3350    3.9840    3.2390 H       2  LIG2        0.0268
     35    H       21.5870    4.8930    4.5420 H       2  LIG2        0.0268
     36    H       23.4700    1.9380    4.0790 H       2  LIG2        0.0233
     37    H       22.1900    2.0900    5.2680 H       2  LIG2        0.0233
     38    H       23.8400    1.8280    5.7980 H       2  LIG2        0.0233
     39    H       26.1090    6.6570    1.5160 H       2  LIG2        0.0257
     40    H       26.5560    8.1390    2.3440 H       2  LIG2        0.0257
     41    H       24.8650    7.7280    2.1390 H       2  LIG2        0.0257
     42    H       25.7560    7.1370    5.5440 H       2  LIG2        0.2102
@<TRIPOS>BOND
     1    39    16    1
     2    31    13    1
     3    32    13    1
     4    41    16    1
     5    40    16    1
     6    16     9    1
     7    22     7    1
     8    33    13    1
     9    13     3    1
    10    25    10    1
    11    20     6    1
    12    21     7    1
    13    34    14    1
    14     7    11    1
    15     7     4    1
    16    27    11    1
    17    10     6    1
    18    10    14    1
    19    10    24    1
    20     6     9    1
    21     6     5    1
    22    28    12    1
    23     9    11    1
    24     9     1    1
    25     3     4    1
    26     3    12    1
    27     3     2    1
    28    11    26    1
    29    36    15    1
    30    14    35    1
    31    14     8    1
    32     4    18    1
    33     4     2    1
    34    12    29    1
    35    12    30    1
    36     1    42    1
    37     5     2    1
    38     5     8    1
    39     5    19    1
    40     2    17    1
    41    15     8    1
    42    15    37    1
    43    15    38    1
    44     8    23    1
@<TRIPOS>MOLECULE
11996452_5_run_19.pdb
 42 44 0 0 0
SMALL
GASTEIGER

@<TRIPOS>ATOM
      1    O       23.0690    3.4130    2.8920 O.3     2  LIG2       -0.3886
      2    C       27.2600    2.9510    3.2940 C.3     2  LIG2       -0.0289
      3    C       28.0420    2.4080    4.4760 C.3     2  LIG2       -0.0284
      4    C       26.9850    1.5270    3.8280 C.3     2  LIG2       -0.0319
      5    C       26.1810    4.0860    3.2730 C.3     2  LIG2       -0.0294
      6    C       24.9990    4.0920    4.2790 C.3     2  LIG2       -0.0090
      7    C       25.6360    1.1700    4.4980 C.3     2  LIG2       -0.0468
      8    C       26.7210    5.5470    3.1990 C.3     2  LIG2       -0.0404
      9    C       23.8740    3.0410    4.0010 C.3     2  LIG2        0.0664
     10    C       24.5420    5.5620    4.3090 C.3     2  LIG2       -0.0471
     11    C       24.4030    1.6140    3.6880 C.3     2  LIG2       -0.0237
     12    C       29.5100    2.0390    4.1810 C.3     2  LIG2       -0.0593
     13    C       27.8930    2.8930    5.9400 C.3     2  LIG2       -0.0593
     14    C       25.8230    6.3730    4.1350 C.3     2  LIG2       -0.0498
     15    C       28.2170    5.7450    3.5170 C.3     2  LIG2       -0.0621
     16    C       22.8980    2.9730    5.2000 C.3     2  LIG2       -0.0358
     17    H       27.8130    2.9950    2.3540 H       2  LIG2        0.0312
     18    H       27.3650    0.6840    3.2500 H       2  LIG2        0.0309
     19    H       25.6970    3.9370    2.3050 H       2  LIG2        0.0310
     20    H       25.3740    3.9040    5.2750 H       2  LIG2        0.0331
     21    H       25.5990    0.0820    4.5670 H       2  LIG2        0.0269
     22    H       25.5660    1.5060    5.5300 H       2  LIG2        0.0269
     23    H       26.5680    5.9180    2.1830 H       2  LIG2        0.0301
     24    H       23.8490    5.7850    3.4980 H       2  LIG2        0.0269
     25    H       24.0400    5.8170    5.2440 H       2  LIG2        0.0269
     26    H       24.6590    1.5280    2.6290 H       2  LIG2        0.0293
     27    H       23.6060    0.8850    3.8430 H       2  LIG2        0.0293
     28    H       29.8710    1.2770    4.8710 H       2  LIG2        0.0235
     29    H       30.1570    2.9110    4.2770 H       2  LIG2        0.0235
     30    H       29.6440    1.6480    3.1720 H       2  LIG2        0.0235
     31    H       28.3130    2.1530    6.6200 H       2  LIG2        0.0235
     32    H       26.8830    3.0530    6.2870 H       2  LIG2        0.0235
     33    H       28.4410    3.8200    6.1050 H       2  LIG2        0.0235
     34    H       26.3010    6.5210    5.1050 H       2  LIG2        0.0268
     35    H       25.6100    7.3620    3.7270 H       2  LIG2        0.0268
     36    H       28.4620    5.4350    4.5310 H       2  LIG2        0.0233
     37    H       28.4970    6.7950    3.4230 H       2  LIG2        0.0233
     38    H       28.8500    5.1840    2.8300 H       2  LIG2        0.0233
     39    H       23.4060    2.6520    6.1100 H       2  LIG2        0.0257
     40    H       22.0800    2.2720    5.0240 H       2  LIG2        0.0257
     41    H       22.4430    3.9420    5.4090 H       2  LIG2        0.0257
     42    H       22.2950    2.8470    2.8760 H       2  LIG2        0.2102
@<TRIPOS>BOND
     1    23     8    1
     2    19     5    1
     3    17     2    1
     4    26    11    1
     5    38    15    1
     6    42     1    1
     7     1     9    1
     8    30    12    1
     9     8     5    1
    10     8    15    1
    11     8    14    1
    12    18     4    1
    13     5     2    1
    14     5     6    1
    15     2     4    1
    16     2     3    1
    17    37    15    1
    18    24    10    1
    19    15    36    1
    20    11    27    1
    21    11     9    1
    22    11     7    1
    23    35    14    1
    24     4     3    1
    25     4     7    1
    26     9     6    1
    27     9    16    1
    28    14    10    1
    29    14    34    1
    30    12    29    1
    31    12     3    1
    32    12    28    1
    33     6    10    1
    34     6    20    1
    35    10    25    1
    36     3    13    1
    37     7    21    1
    38     7    22    1
    39    40    16    1
    40    16    41    1
    41    16    39    1
    42    13    33    1
    43    13    32    1
    44    13    31    1
