@<TRIPOS>MOLECULE
11996452_7_run_2.pdb
 42 44 0 0 0
SMALL
GASTEIGER

@<TRIPOS>ATOM
      1    O       26.1220    1.7630    2.3880 O.3     2  LIG2       -0.3886
      2    C       28.5780    0.6150    3.5640 C.3     2  LIG2       -0.0289
      3    C       29.1190   -0.7490    3.9760 C.3     2  LIG2       -0.0284
      4    C       27.6580   -0.6110    3.6170 C.3     2  LIG2       -0.0319
      5    C       28.3360    1.7790    4.5710 C.3     2  LIG2       -0.0294
      6    C       26.9300    2.4770    4.5670 C.3     2  LIG2       -0.0090
      7    C       26.5020   -0.5740    4.6310 C.3     2  LIG2       -0.0468
      8    C       29.3900    2.9020    4.4080 C.3     2  LIG2       -0.0404
      9    C       25.7480    1.8320    3.7550 C.3     2  LIG2        0.0664
     10    C       27.2280    3.9530    4.2410 C.3     2  LIG2       -0.0471
     11    C       25.3660    0.3920    4.2290 C.3     2  LIG2       -0.0237
     12    C       30.0240   -1.4580    2.9520 C.3     2  LIG2       -0.0593
     13    C       29.5510   -1.0580    5.4280 C.3     2  LIG2       -0.0593
     14    C       28.6510    4.2000    4.7350 C.3     2  LIG2       -0.0498
     15    C       30.6600    2.6800    5.2500 C.3     2  LIG2       -0.0621
     16    C       24.4720    2.7080    3.7970 C.3     2  LIG2       -0.0358
     17    H       28.8160    0.9830    2.5650 H       2  LIG2        0.0312
     18    H       27.3470   -1.0680    2.6770 H       2  LIG2        0.0309
     19    H       28.4430    1.3920    5.5830 H       2  LIG2        0.0310
     20    H       26.5840    2.4800    5.6040 H       2  LIG2        0.0331
     21    H       26.0940   -1.5790    4.7400 H       2  LIG2        0.0269
     22    H       26.8480   -0.2980    5.6250 H       2  LIG2        0.0269
     23    H       29.6910    2.9720    3.3610 H       2  LIG2        0.0301
     24    H       27.1670    4.1350    3.1660 H       2  LIG2        0.0269
     25    H       26.5240    4.6320    4.7250 H       2  LIG2        0.0269
     26    H       24.7450   -0.0890    3.4710 H       2  LIG2        0.0293
     27    H       24.7220    0.4740    5.1050 H       2  LIG2        0.0293
     28    H       29.9960   -2.5400    3.0870 H       2  LIG2        0.0235
     29    H       31.0600   -1.1340    3.0550 H       2  LIG2        0.0235
     30    H       29.7220   -1.2530    1.9240 H       2  LIG2        0.0235
     31    H       29.5440   -2.1330    5.6080 H       2  LIG2        0.0235
     32    H       28.9180   -0.6140    6.1920 H       2  LIG2        0.0235
     33    H       30.5650   -0.7000    5.6100 H       2  LIG2        0.0235
     34    H       28.6540    4.3930    5.8100 H       2  LIG2        0.0268
     35    H       29.0990    5.0650    4.2430 H       2  LIG2        0.0268
     36    H       30.4300    2.6220    6.3160 H       2  LIG2        0.0233
     37    H       31.3710    3.4950    5.1090 H       2  LIG2        0.0233
     38    H       31.1600    1.7540    4.9680 H       2  LIG2        0.0233
     39    H       24.1330    2.8650    4.8210 H       2  LIG2        0.0257
     40    H       23.6490    2.2480    3.2470 H       2  LIG2        0.0257
     41    H       24.6340    3.6920    3.3550 H       2  LIG2        0.0257
     42    H       25.4080    1.3510    1.8990 H       2  LIG2        0.2102
@<TRIPOS>BOND
     1    42     1    1
     2    30    12    1
     3     1     9    1
     4    17     2    1
     5    18     4    1
     6    12    29    1
     7    12    28    1
     8    12     3    1
     9    24    10    1
    10    40    16    1
    11    41    16    1
    12    23     8    1
    13    26    11    1
    14     2     4    1
    15     2     3    1
    16     2     5    1
    17     4     3    1
    18     4     7    1
    19     9    16    1
    20     9    11    1
    21     9     6    1
    22    16    39    1
    23     3    13    1
    24    11     7    1
    25    11    27    1
    26    10     6    1
    27    10    25    1
    28    10    14    1
    29    35    14    1
    30     8     5    1
    31     8    14    1
    32     8    15    1
    33     6     5    1
    34     6    20    1
    35     5    19    1
    36     7    21    1
    37     7    22    1
    38    14    34    1
    39    38    15    1
    40    37    15    1
    41    15    36    1
    42    13    31    1
    43    13    33    1
    44    13    32    1
@<TRIPOS>MOLECULE
11996452_7_run_18.pdb
 42 44 0 0 0
SMALL
GASTEIGER

@<TRIPOS>ATOM
      1    O       25.5260    4.3910    5.5310 O.3     2  LIG2       -0.3886
      2    C       27.6140    2.3490    5.0780 C.3     2  LIG2       -0.0289
      3    C       29.1340    2.2560    5.0520 C.3     2  LIG2       -0.0284
      4    C       28.4790    3.6150    5.1030 C.3     2  LIG2       -0.0319
      5    C       26.7190    2.0760    3.8330 C.3     2  LIG2       -0.0294
      6    C       25.6520    3.1580    3.4400 C.3     2  LIG2       -0.0090
      7    C       28.3480    4.5740    3.9070 C.3     2  LIG2       -0.0468
      8    C       25.9610    0.7300    3.9600 C.3     2  LIG2       -0.0404
      9    C       25.6880    4.5680    4.1330 C.3     2  LIG2        0.0664
     10    C       24.3010    2.4200    3.5150 C.3     2  LIG2       -0.0471
     11    C       27.0170    5.3570    3.8940 C.3     2  LIG2       -0.0237
     12    C       29.8070    1.7570    6.3450 C.3     2  LIG2       -0.0593
     13    C       29.9080    1.7960    3.7950 C.3     2  LIG2       -0.0593
     14    C       24.6240    0.9520    3.2510 C.3     2  LIG2       -0.0498
     15    C       26.7560   -0.4750    3.4260 C.3     2  LIG2       -0.0621
     16    C       24.5080    5.4640    3.6840 C.3     2  LIG2       -0.0358
     17    H       27.0990    2.1130    6.0110 H       2  LIG2        0.0312
     18    H       28.5730    4.1620    6.0410 H       2  LIG2        0.0309
     19    H       27.3570    1.9950    2.9550 H       2  LIG2        0.0310
     20    H       25.8010    3.3680    2.3780 H       2  LIG2        0.0331
     21    H       29.1780    5.2810    3.9270 H       2  LIG2        0.0269
     22    H       28.4440    4.0500    2.9580 H       2  LIG2        0.0269
     23    H       25.7280    0.5400    5.0090 H       2  LIG2        0.0301
     24    H       23.8490    2.5330    4.5020 H       2  LIG2        0.0269
     25    H       23.5840    2.7980    2.7850 H       2  LIG2        0.0269
     26    H       27.0860    6.1830    4.6050 H       2  LIG2        0.0293
     27    H       26.9640    5.8370    2.9150 H       2  LIG2        0.0293
     28    H       30.8280    2.1320    6.4250 H       2  LIG2        0.0235
     29    H       29.8450    0.6680    6.3710 H       2  LIG2        0.0235
     30    H       29.2720    2.0840    7.2390 H       2  LIG2        0.0235
     31    H       30.9410    2.1430    3.8350 H       2  LIG2        0.0235
     32    H       29.4990    2.1560    2.8550 H       2  LIG2        0.0235
     33    H       29.9290    0.7070    3.7340 H       2  LIG2        0.0235
     34    H       24.7130    0.7670    2.1790 H       2  LIG2        0.0268
     35    H       23.8410    0.2960    3.6350 H       2  LIG2        0.0268
     36    H       27.0040   -0.3570    2.3700 H       2  LIG2        0.0233
     37    H       26.1850   -1.3980    3.5300 H       2  LIG2        0.0233
     38    H       27.6900   -0.6020    3.9740 H       2  LIG2        0.0233
     39    H       24.5150    5.6170    2.6050 H       2  LIG2        0.0257
     40    H       24.5480    6.4490    4.1540 H       2  LIG2        0.0257
     41    H       23.5410    5.0310    3.9440 H       2  LIG2        0.0257
     42    H       24.6790    3.9690    5.6870 H       2  LIG2        0.2102
@<TRIPOS>BOND
     1    34    14    1
     2    36    15    1
     3    20     6    1
     4    39    16    1
     5    25    10    1
     6    32    13    1
     7    27    11    1
     8    19     5    1
     9    22     7    1
    10    14    10    1
    11    14    35    1
    12    14     8    1
    13    15    37    1
    14    15     8    1
    15    15    38    1
    16     6    10    1
    17     6     5    1
    18     6     9    1
    19    10    24    1
    20    16    41    1
    21    16     9    1
    22    16    40    1
    23    33    13    1
    24    13    31    1
    25    13     3    1
    26     5     8    1
    27     5     2    1
    28    11     7    1
    29    11     9    1
    30    11    26    1
    31     7    21    1
    32     7     4    1
    33     8    23    1
    34     9     1    1
    35     3     2    1
    36     3     4    1
    37     3    12    1
    38     2     4    1
    39     2    17    1
    40     4    18    1
    41     1    42    1
    42    12    29    1
    43    12    28    1
    44    12    30    1
@<TRIPOS>MOLECULE
11996452_7_run_24.pdb
 42 44 0 0 0
SMALL
GASTEIGER

@<TRIPOS>ATOM
      1    O       28.0340   -0.4280    5.9680 O.3     2  LIG2       -0.3886
      2    C       26.6130    1.9050    4.8390 C.3     2  LIG2       -0.0289
      3    C       25.3420    2.1970    4.0530 C.3     2  LIG2       -0.0284
      4    C       25.7950    0.7670    4.2160 C.3     2  LIG2       -0.0319
      5    C       28.0430    2.1890    4.2890 C.3     2  LIG2       -0.0294
      6    C       29.0950    1.0250    4.3330 C.3     2  LIG2       -0.0090
      7    C       26.4810   -0.0700    3.1220 C.3     2  LIG2       -0.0468
      8    C       28.6950    3.4030    4.9970 C.3     2  LIG2       -0.0404
      9    C       28.6210   -0.4340    4.6770 C.3     2  LIG2        0.0664
     10    C       30.2440    1.5690    5.2060 C.3     2  LIG2       -0.0471
     11    C       27.5740   -1.0140    3.6690 C.3     2  LIG2       -0.0237
     12    C       24.1190    2.6400    4.8780 C.3     2  LIG2       -0.0593
     13    C       25.3710    2.8840    2.6680 C.3     2  LIG2       -0.0593
     14    C       30.1900    3.0860    5.0490 C.3     2  LIG2       -0.0498
     15    C       28.3680    4.7510    4.3300 C.3     2  LIG2       -0.0621
     16    C       29.8090   -1.4240    4.7610 C.3     2  LIG2       -0.0358
     17    H       26.5740    1.9720    5.9270 H       2  LIG2        0.0312
     18    H       25.1920    0.1400    4.8740 H       2  LIG2        0.0309
     19    H       27.9670    2.4440    3.2340 H       2  LIG2        0.0310
     20    H       29.5150    0.9490    3.3270 H       2  LIG2        0.0331
     21    H       25.7270   -0.6600    2.6030 H       2  LIG2        0.0269
     22    H       26.9280    0.5600    2.3550 H       2  LIG2        0.0269
     23    H       28.3520    3.4500    6.0330 H       2  LIG2        0.0301
     24    H       30.1020    1.2940    6.2520 H       2  LIG2        0.0269
     25    H       31.2140    1.1790    4.8960 H       2  LIG2        0.0269
     26    H       27.0960   -1.8930    4.1040 H       2  LIG2        0.0293
     27    H       28.1070   -1.3900    2.7950 H       2  LIG2        0.0293
     28    H       23.1890    2.3950    4.3640 H       2  LIG2        0.0235
     29    H       24.1330    3.7160    5.0530 H       2  LIG2        0.0235
     30    H       24.0850    2.1540    5.8550 H       2  LIG2        0.0235
     31    H       24.4540    2.6720    2.1170 H       2  LIG2        0.0235
     32    H       26.1920    2.5750    2.0270 H       2  LIG2        0.0235
     33    H       25.4460    3.9670    2.7780 H       2  LIG2        0.0235
     34    H       30.6880    3.3930    4.1270 H       2  LIG2        0.0268
     35    H       30.6900    3.5900    5.8770 H       2  LIG2        0.0268
     36    H       28.7060    4.7790    3.2920 H       2  LIG2        0.0233
     37    H       28.8490    5.5760    4.8560 H       2  LIG2        0.0233
     38    H       27.2940    4.9410    4.3340 H       2  LIG2        0.0233
     39    H       30.3610   -1.4600    3.8220 H       2  LIG2        0.0257
     40    H       29.4730   -2.4390    4.9820 H       2  LIG2        0.0257
     41    H       30.5170   -1.1500    5.5440 H       2  LIG2        0.0257
     42    H       27.7120   -1.3110    6.1590 H       2  LIG2        0.2102
@<TRIPOS>BOND
     1    32    13    1
     2    31    13    1
     3    22     7    1
     4    21     7    1
     5    13    33    1
     6    13     3    1
     7    27    11    1
     8     7    11    1
     9     7     4    1
    10    19     5    1
    11    36    15    1
    12    20     6    1
    13    11    26    1
    14    11     9    1
    15    39    16    1
    16     3     4    1
    17     3     2    1
    18     3    12    1
    19    34    14    1
    20     4     2    1
    21     4    18    1
    22     5     6    1
    23     5     2    1
    24     5     8    1
    25    15    38    1
    26    15    37    1
    27    15     8    1
    28     6     9    1
    29     6    10    1
    30    28    12    1
    31     9    16    1
    32     9     1    1
    33    16    40    1
    34    16    41    1
    35     2    17    1
    36    12    29    1
    37    12    30    1
    38    25    10    1
    39     8    14    1
    40     8    23    1
    41    14    10    1
    42    14    35    1
    43    10    24    1
    44     1    42    1
@<TRIPOS>MOLECULE
11996452_7_run_13.pdb
 42 44 0 0 0
SMALL
GASTEIGER

@<TRIPOS>ATOM
      1    O       29.7030    2.3190    3.2350 O.3     2  LIG2       -0.3886
      2    C       27.0470    1.0260    3.3340 C.3     2  LIG2       -0.0289
      3    C       25.5800    1.4190    3.2140 C.3     2  LIG2       -0.0284
      4    C       26.6260    2.5010    3.3310 C.3     2  LIG2       -0.0319
      5    C       27.6690    0.4250    4.6300 C.3     2  LIG2       -0.0294
      6    C       28.9680    1.0930    5.2020 C.3     2  LIG2       -0.0090
      7    C       26.9150    3.3120    4.6060 C.3     2  LIG2       -0.0468
      8    C       27.9800   -1.0840    4.4650 C.3     2  LIG2       -0.0404
      9    C       29.4490    2.4730    4.6230 C.3     2  LIG2        0.0664
     10    C       30.0230   -0.0310    5.1920 C.3     2  LIG2       -0.0471
     11    C       28.4130    3.6310    4.8030 C.3     2  LIG2       -0.0237
     12    C       24.9340    1.2210    1.8300 C.3     2  LIG2       -0.0593
     13    C       24.5670    1.1710    4.3550 C.3     2  LIG2       -0.0593
     14    C       29.2320   -1.3310    5.3080 C.3     2  LIG2       -0.0498
     15    C       26.7960   -1.9980    4.8270 C.3     2  LIG2       -0.0621
     16    C       30.7920    2.9260    5.2470 C.3     2  LIG2       -0.0358
     17    H       27.5630    0.6830    2.4360 H       2  LIG2        0.0312
     18    H       26.8120    3.0930    2.4350 H       2  LIG2        0.0309
     19    H       26.9430    0.5100    5.4370 H       2  LIG2        0.0310
     20    H       28.7750    1.2900    6.2600 H       2  LIG2        0.0331
     21    H       26.3540    4.2460    4.5670 H       2  LIG2        0.0269
     22    H       26.5560    2.8010    5.4980 H       2  LIG2        0.0269
     23    H       28.2570   -1.2890    3.4290 H       2  LIG2        0.0301
     24    H       30.5940   -0.0210    4.2620 H       2  LIG2        0.0269
     25    H       30.7360    0.0660    6.0110 H       2  LIG2        0.0269
     26    H       28.6840    4.4670    4.1560 H       2  LIG2        0.0293
     27    H       28.5040    4.0230    5.8170 H       2  LIG2        0.0293
     28    H       24.0950    1.9030    1.6870 H       2  LIG2        0.0235
     29    H       24.5620    0.2030    1.7140 H       2  LIG2        0.0235
     30    H       25.6390    1.4020    1.0170 H       2  LIG2        0.0235
     31    H       23.7040    1.8290    4.2490 H       2  LIG2        0.0235
     32    H       24.9600    1.3380    5.3540 H       2  LIG2        0.0235
     33    H       24.2020    0.1430    4.3270 H       2  LIG2        0.0235
     34    H       28.9710   -1.5280    6.3490 H       2  LIG2        0.0268
     35    H       29.8100   -2.1830    4.9460 H       2  LIG2        0.0268
     36    H       26.4800   -1.8570    5.8630 H       2  LIG2        0.0233
     37    H       27.0590   -3.0490    4.7020 H       2  LIG2        0.0233
     38    H       25.9350   -1.7960    4.1880 H       2  LIG2        0.0233
     39    H       30.7130    3.0230    6.3300 H       2  LIG2        0.0257
     40    H       31.1130    3.8930    4.8550 H       2  LIG2        0.0257
     41    H       31.5990    2.2210    5.0420 H       2  LIG2        0.0257
     42    H       30.4660    1.7480    3.1280 H       2  LIG2        0.2102
@<TRIPOS>BOND
     1    30    12    1
     2    28    12    1
     3    29    12    1
     4    12     3    1
     5    18     4    1
     6    17     2    1
     7    42     1    1
     8     3     4    1
     9     3     2    1
    10     3    13    1
    11     1     9    1
    12     4     2    1
    13     4     7    1
    14     2     5    1
    15    23     8    1
    16    26    11    1
    17    38    15    1
    18    31    13    1
    19    24    10    1
    20    33    13    1
    21    13    32    1
    22     8     5    1
    23     8    15    1
    24     8    14    1
    25    21     7    1
    26     7    11    1
    27     7    22    1
    28     9    11    1
    29     9     6    1
    30     9    16    1
    31     5     6    1
    32     5    19    1
    33    37    15    1
    34    11    27    1
    35    15    36    1
    36    40    16    1
    37    35    14    1
    38    41    16    1
    39    10     6    1
    40    10    14    1
    41    10    25    1
    42     6    20    1
    43    16    39    1
    44    14    34    1
@<TRIPOS>MOLECULE
11996452_7_run_12.pdb
 42 44 0 0 0
SMALL
GASTEIGER

@<TRIPOS>ATOM
      1    O       30.8220    1.1150    4.5970 O.3     2  LIG2       -0.3886
      2    C       28.2080    2.3720    4.0310 C.3     2  LIG2       -0.0289
      3    C       27.4560    3.6510    4.3780 C.3     2  LIG2       -0.0284
      4    C       28.7330    3.3220    5.1150 C.3     2  LIG2       -0.0319
      5    C       27.7210    0.9520    4.4490 C.3     2  LIG2       -0.0294
      6    C       28.7380    0.0110    5.1860 C.3     2  LIG2       -0.0090
      7    C       28.8050    2.7730    6.5500 C.3     2  LIG2       -0.0468
      8    C       27.1770    0.1570    3.2360 C.3     2  LIG2       -0.0404
      9    C       30.1010    0.5980    5.7040 C.3     2  LIG2        0.0664
     10    C       28.8560   -1.2260    4.2740 C.3     2  LIG2       -0.0471
     11    C       29.9370    1.7440    6.7560 C.3     2  LIG2       -0.0237
     12    C       27.5240    4.7830    3.3360 C.3     2  LIG2       -0.0593
     13    C       26.0930    3.6310    5.1080 C.3     2  LIG2       -0.0593
     14    C       27.5310   -1.3040    3.5200 C.3     2  LIG2       -0.0498
     15    C       25.6800    0.3930    2.9680 C.3     2  LIG2       -0.0621
     16    C       31.0060   -0.4960    6.3200 C.3     2  LIG2       -0.0358
     17    H       28.7860    2.3490    3.1050 H       2  LIG2        0.0312
     18    H       29.5970    3.9460    4.8850 H       2  LIG2        0.0309
     19    H       26.8950    1.0600    5.1500 H       2  LIG2        0.0310
     20    H       28.2320   -0.3470    6.0860 H       2  LIG2        0.0331
     21    H       28.9480    3.6050    7.2400 H       2  LIG2        0.0269
     22    H       27.8660    2.3110    6.8510 H       2  LIG2        0.0269
     23    H       27.7270    0.4400    2.3360 H       2  LIG2        0.0301
     24    H       29.6830   -1.1150    3.5710 H       2  LIG2        0.0269
     25    H       29.0350   -2.1400    4.8420 H       2  LIG2        0.0269
     26    H       30.8840    2.2780    6.8650 H       2  LIG2        0.0293
     27    H       29.7570    1.2950    7.7330 H       2  LIG2        0.0293
     28    H       27.3810    5.7570    3.8060 H       2  LIG2        0.0235
     29    H       26.7540    4.6610    2.5750 H       2  LIG2        0.0235
     30    H       28.4860    4.8110    2.8210 H       2  LIG2        0.0235
     31    H       25.9040    4.5900    5.5890 H       2  LIG2        0.0235
     32    H       26.0070    2.8750    5.8840 H       2  LIG2        0.0235
     33    H       25.2820    3.4510    4.4010 H       2  LIG2        0.0235
     34    H       26.7670   -1.7790    4.1380 H       2  LIG2        0.0268
     35    H       27.6270   -1.8900    2.6050 H       2  LIG2        0.0268
     36    H       25.0680    0.1080    3.8260 H       2  LIG2        0.0233
     37    H       25.3380   -0.1890    2.1110 H       2  LIG2        0.0233
     38    H       25.4810    1.4430    2.7530 H       2  LIG2        0.0233
     39    H       30.5120   -0.9940    7.1550 H       2  LIG2        0.0257
     40    H       31.9430   -0.0810    6.6950 H       2  LIG2        0.0257
     41    H       31.2710   -1.2670    5.5950 H       2  LIG2        0.0257
     42    H       31.3030    0.3940    4.1850 H       2  LIG2        0.2102
@<TRIPOS>BOND
     1    37    15    1
     2    23     8    1
     3    29    12    1
     4    35    14    1
     5    38    15    1
     6    30    12    1
     7    15     8    1
     8    15    36    1
     9    17     2    1
    10     8    14    1
    11     8     5    1
    12    12    28    1
    13    12     3    1
    14    14    34    1
    15    14    10    1
    16    24    10    1
    17     2     3    1
    18     2     5    1
    19     2     4    1
    20    42     1    1
    21    10    25    1
    22    10     6    1
    23     3    13    1
    24     3     4    1
    25    33    13    1
    26     5    19    1
    27     5     6    1
    28     1     9    1
    29    18     4    1
    30    13    31    1
    31    13    32    1
    32     4     7    1
    33     6     9    1
    34     6    20    1
    35    41    16    1
    36     9    16    1
    37     9    11    1
    38    16    40    1
    39    16    39    1
    40     7    11    1
    41     7    22    1
    42     7    21    1
    43    11    26    1
    44    11    27    1
@<TRIPOS>MOLECULE
11996452_7_run_23.pdb
 42 44 0 0 0
SMALL
GASTEIGER

@<TRIPOS>ATOM
      1    O       27.9770    2.2180    5.9620 O.3     2  LIG2       -0.3886
      2    C       25.4180    2.9780    4.6940 C.3     2  LIG2       -0.0289
      3    C       24.1670    2.3000    4.1490 C.3     2  LIG2       -0.0284
      4    C       25.3670    1.4560    4.5080 C.3     2  LIG2       -0.0319
      5    C       26.3940    3.8100    3.8110 C.3     2  LIG2       -0.0294
      6    C       27.9240    3.4640    3.8750 C.3     2  LIG2       -0.0090
      7    C       26.3480    0.8430    3.4940 C.3     2  LIG2       -0.0468
      8    C       26.2700    5.3280    4.0980 C.3     2  LIG2       -0.0404
      9    C       28.3910    2.1530    4.6070 C.3     2  LIG2        0.0664
     10    C       28.5990    4.7640    4.3550 C.3     2  LIG2       -0.0471
     11    C       27.8120    0.8400    3.9840 C.3     2  LIG2       -0.0237
     12    C       22.9590    2.2350    5.1010 C.3     2  LIG2       -0.0593
     13    C       23.7230    2.4580    2.6760 C.3     2  LIG2       -0.0593
     14    C       27.6770    5.8920    3.9010 C.3     2  LIG2       -0.0498
     15    C       25.1940    6.0270    3.2480 C.3     2  LIG2       -0.0621
     16    C       29.9340    2.0300    4.6450 C.3     2  LIG2       -0.0358
     17    H       25.4050    3.3260    5.7290 H       2  LIG2        0.0312
     18    H       25.2680    0.8270    5.3930 H       2  LIG2        0.0309
     19    H       26.1280    3.6650    2.7650 H       2  LIG2        0.0310
     20    H       28.2560    3.3370    2.8420 H       2  LIG2        0.0331
     21    H       26.0410   -0.1800    3.2780 H       2  LIG2        0.0269
     22    H       26.3110    1.3590    2.5360 H       2  LIG2        0.0269
     23    H       26.0180    5.4820    5.1500 H       2  LIG2        0.0301
     24    H       28.6970    4.7740    5.4420 H       2  LIG2        0.0269
     25    H       29.5990    4.8860    3.9380 H       2  LIG2        0.0269
     26    H       27.9490    0.0130    4.6830 H       2  LIG2        0.0293
     27    H       28.4160    0.5730    3.1160 H       2  LIG2        0.0293
     28    H       22.3110    1.3930    4.8550 H       2  LIG2        0.0235
     29    H       22.3630    3.1460    5.0410 H       2  LIG2        0.0235
     30    H       23.2620    2.1150    6.1430 H       2  LIG2        0.0235
     31    H       23.0650    1.6380    2.3870 H       2  LIG2        0.0235
     32    H       24.5370    2.4670    1.9570 H       2  LIG2        0.0235
     33    H       23.1700    3.3880    2.5400 H       2  LIG2        0.0235
     34    H       27.8580    6.1350    2.8520 H       2  LIG2        0.0268
     35    H       27.8420    6.8000    4.4830 H       2  LIG2        0.0268
     36    H       25.3980    5.9290    2.1800 H       2  LIG2        0.0233
     37    H       25.1430    7.0920    3.4780 H       2  LIG2        0.0233
     38    H       24.2070    5.6030    3.4370 H       2  LIG2        0.0233
     39    H       30.3550    2.0250    3.6400 H       2  LIG2        0.0257
     40    H       30.2530    1.1100    5.1370 H       2  LIG2        0.0257
     41    H       30.3990    2.8540    5.1880 H       2  LIG2        0.0257
     42    H       28.3240    1.4520    6.4230 H       2  LIG2        0.2102
@<TRIPOS>BOND
     1    32    13    1
     2    36    15    1
     3    31    13    1
     4    22     7    1
     5    33    13    1
     6    13     3    1
     7    19     5    1
     8    20     6    1
     9    34    14    1
    10    27    11    1
    11    15    38    1
    12    15    37    1
    13    15     8    1
    14    21     7    1
    15     7    11    1
    16     7     4    1
    17    39    16    1
    18     5     6    1
    19     5     8    1
    20     5     2    1
    21     6    10    1
    22     6     9    1
    23    14     8    1
    24    14    10    1
    25    14    35    1
    26    25    10    1
    27    11     9    1
    28    11    26    1
    29     8    23    1
    30     3     4    1
    31     3     2    1
    32     3    12    1
    33    10    24    1
    34     4     2    1
    35     4    18    1
    36     9    16    1
    37     9     1    1
    38    16    40    1
    39    16    41    1
    40     2    17    1
    41    28    12    1
    42    29    12    1
    43    12    30    1
    44     1    42    1
@<TRIPOS>MOLECULE
11996452_7_run_22.pdb
 42 44 0 0 0
SMALL
GASTEIGER

@<TRIPOS>ATOM
      1    O       28.6510    2.0400    6.7720 O.3     2  LIG2       -0.3886
      2    C       27.7530    0.0840    4.7470 C.3     2  LIG2       -0.0289
      3    C       28.2000   -1.2550    4.1740 C.3     2  LIG2       -0.0284
      4    C       29.1400   -0.4850    5.0720 C.3     2  LIG2       -0.0319
      5    C       27.6560    1.3880    3.8990 C.3     2  LIG2       -0.0294
      6    C       28.3730    2.6750    4.4420 C.3     2  LIG2       -0.0090
      7    C       30.3570    0.3210    4.5870 C.3     2  LIG2       -0.0468
      8    C       26.1830    1.7820    3.6250 C.3     2  LIG2       -0.0404
      9    C       29.3620    2.5550    5.6570 C.3     2  LIG2        0.0664
     10    C       27.2430    3.7100    4.6080 C.3     2  LIG2       -0.0471
     11    C       30.5870    1.6210    5.3880 C.3     2  LIG2       -0.0237
     12    C       27.5330   -2.5070    4.7730 C.3     2  LIG2       -0.0593
     13    C       28.5160   -1.4420    2.6720 C.3     2  LIG2       -0.0593
     14    C       26.1730    3.3110    3.5960 C.3     2  LIG2       -0.0498
     15    C       25.5990    1.1310    2.3590 C.3     2  LIG2       -0.0621
     16    C       29.8990    3.9370    6.1050 C.3     2  LIG2       -0.0358
     17    H       27.0370    0.0790    5.5710 H       2  LIG2        0.0312
     18    H       29.3100   -0.9030    6.0640 H       2  LIG2        0.0309
     19    H       28.1190    1.2090    2.9300 H       2  LIG2        0.0310
     20    H       28.9880    3.0550    3.6220 H       2  LIG2        0.0331
     21    H       31.2470   -0.3040    4.6580 H       2  LIG2        0.0269
     22    H       30.2740    0.5800    3.5330 H       2  LIG2        0.0269
     23    H       25.5610    1.4840    4.4720 H       2  LIG2        0.0301
     24    H       26.8340    3.6810    5.6190 H       2  LIG2        0.0269
     25    H       27.5890    4.7290    4.4280 H       2  LIG2        0.0269
     26    H       31.0730    1.3730    6.3340 H       2  LIG2        0.0293
     27    H       31.3370    2.1850    4.8300 H       2  LIG2        0.0293
     28    H       28.1780   -3.3800    4.6730 H       2  LIG2        0.0235
     29    H       26.5910   -2.7260    4.2710 H       2  LIG2        0.0235
     30    H       27.3140   -2.3880    5.8350 H       2  LIG2        0.0235
     31    H       29.1560   -2.3120    2.5230 H       2  LIG2        0.0235
     32    H       29.0260   -0.6020    2.2090 H       2  LIG2        0.0235
     33    H       27.5990   -1.6070    2.1050 H       2  LIG2        0.0235
     34    H       26.4280    3.6850    2.6030 H       2  LIG2        0.0268
     35    H       25.1990    3.7220    3.8640 H       2  LIG2        0.0268
     36    H       26.1650    1.4080    1.4670 H       2  LIG2        0.0233
     37    H       24.5640    1.4390    2.2010 H       2  LIG2        0.0233
     38    H       25.6110    0.0440    2.4350 H       2  LIG2        0.0233
     39    H       30.4210    4.4410    5.2910 H       2  LIG2        0.0257
     40    H       30.5990    3.8480    6.9370 H       2  LIG2        0.0257
     41    H       29.0990    4.6010    6.4370 H       2  LIG2        0.0257
     42    H       29.2850    1.7950    7.4490 H       2  LIG2        0.2102
@<TRIPOS>BOND
     1    36    15    1
     2    33    13    1
     3    37    15    1
     4    32    13    1
     5    15    38    1
     6    15     8    1
     7    31    13    1
     8    34    14    1
     9    13     3    1
    10    19     5    1
    11    22     7    1
    12    14     8    1
    13    14    35    1
    14    14    10    1
    15    20     6    1
    16     8     5    1
    17     8    23    1
    18     5     6    1
    19     5     2    1
    20     3     2    1
    21     3    12    1
    22     3     4    1
    23    29    12    1
    24    25    10    1
    25     6    10    1
    26     6     9    1
    27     7    21    1
    28     7     4    1
    29     7    11    1
    30    10    24    1
    31    28    12    1
    32     2     4    1
    33     2    17    1
    34    12    30    1
    35    27    11    1
    36     4    18    1
    37    39    16    1
    38    11     9    1
    39    11    26    1
    40     9    16    1
    41     9     1    1
    42    16    41    1
    43    16    40    1
    44     1    42    1
@<TRIPOS>MOLECULE
11996452_7_run_14.pdb
 42 44 0 0 0
SMALL
GASTEIGER

@<TRIPOS>ATOM
      1    O       25.4520    2.4320    5.3060 O.3     2  LIG2       -0.3886
      2    C       28.3580    1.9150    5.4380 C.3     2  LIG2       -0.0289
      3    C       29.6610    2.7050    5.4360 C.3     2  LIG2       -0.0284
      4    C       28.3680    3.4120    5.1050 C.3     2  LIG2       -0.0319
      5    C       27.9710    0.9000    4.3210 C.3     2  LIG2       -0.0294
      6    C       26.5640    1.0500    3.6430 C.3     2  LIG2       -0.0090
      7    C       27.9230    3.8160    3.6890 C.3     2  LIG2       -0.0468
      8    C       28.0690   -0.5630    4.8220 C.3     2  LIG2       -0.0404
      9    C       25.7090    2.3420    3.9130 C.3     2  LIG2        0.0664
     10    C       25.8490   -0.2860    3.9260 C.3     2  LIG2       -0.0471
     11    C       26.4030    3.6670    3.4600 C.3     2  LIG2       -0.0237
     12    C       30.2820    2.9960    6.8150 C.3     2  LIG2       -0.0593
     13    C       30.7470    2.4950    4.3560 C.3     2  LIG2       -0.0593
     14    C       26.9630   -1.3170    4.0830 C.3     2  LIG2       -0.0498
     15    C       29.4680   -1.1800    4.6460 C.3     2  LIG2       -0.0621
     16    C       24.3190    2.2680    3.2350 C.3     2  LIG2       -0.0358
     17    H       27.9180    1.6500    6.4010 H       2  LIG2        0.0312
     18    H       27.9960    4.1130    5.8520 H       2  LIG2        0.0309
     19    H       28.6790    0.9990    3.4990 H       2  LIG2        0.0310
     20    H       26.7390    1.0560    2.5650 H       2  LIG2        0.0331
     21    H       28.2120    4.8510    3.5080 H       2  LIG2        0.0269
     22    H       28.4400    3.2380    2.9250 H       2  LIG2        0.0269
     23    H       27.8170   -0.6040    5.8830 H       2  LIG2        0.0301
     24    H       25.2600   -0.2270    4.8420 H       2  LIG2        0.0269
     25    H       25.1690   -0.5670    3.1210 H       2  LIG2        0.0269
     26    H       25.8930    4.5200    3.9110 H       2  LIG2        0.0293
     27    H       26.2510    3.7890    2.3860 H       2  LIG2        0.0293
     28    H       30.9010    3.8930    6.7840 H       2  LIG2        0.0235
     29    H       30.9080    2.1670    7.1450 H       2  LIG2        0.0235
     30    H       29.5220    3.1540    7.5830 H       2  LIG2        0.0235
     31    H       31.3980    3.3680    4.2940 H       2  LIG2        0.0235
     32    H       30.3630    2.3270    3.3540 H       2  LIG2        0.0235
     33    H       31.3730    1.6360    4.6030 H       2  LIG2        0.0235
     34    H       27.3080   -1.6600    3.1050 H       2  LIG2        0.0268
     35    H       26.6200   -2.1930    4.6370 H       2  LIG2        0.0268
     36    H       29.7740   -1.1900    3.5980 H       2  LIG2        0.0233
     37    H       29.4910   -2.2100    5.0050 H       2  LIG2        0.0233
     38    H       30.2170   -0.6200    5.2050 H       2  LIG2        0.0233
     39    H       24.4120    2.1430    2.1560 H       2  LIG2        0.0257
     40    H       23.7360    3.1740    3.4100 H       2  LIG2        0.0257
     41    H       23.7230    1.4340    3.6080 H       2  LIG2        0.0257
     42    H       24.9890    1.6390    5.5810 H       2  LIG2        0.2102
@<TRIPOS>BOND
     1    39    16    1
     2    27    11    1
     3    20     6    1
     4    22     7    1
     5    34    14    1
     6    25    10    1
     7    16    40    1
     8    16    41    1
     9    16     9    1
    10    32    13    1
    11    11     7    1
    12    11    26    1
    13    11     9    1
    14    19     5    1
    15    21     7    1
    16    36    15    1
    17     6     9    1
    18     6    10    1
    19     6     5    1
    20     7     4    1
    21     9     1    1
    22    10    14    1
    23    10    24    1
    24    14    35    1
    25    14     8    1
    26    31    13    1
    27     5     8    1
    28     5     2    1
    29    13    33    1
    30    13     3    1
    31    15     8    1
    32    15    37    1
    33    15    38    1
    34     8    23    1
    35     4     3    1
    36     4     2    1
    37     4    18    1
    38     1    42    1
    39     3     2    1
    40     3    12    1
    41     2    17    1
    42    28    12    1
    43    12    29    1
    44    12    30    1
@<TRIPOS>MOLECULE
11996452_7_run_16.pdb
 42 44 0 0 0
SMALL
GASTEIGER

@<TRIPOS>ATOM
      1    O       28.6260   -1.0410    3.3290 O.3     2  LIG2       -0.3886
      2    C       29.0720    1.6790    4.3930 C.3     2  LIG2       -0.0289
      3    C       30.0070    2.3870    5.3650 C.3     2  LIG2       -0.0284
      4    C       30.0060    0.8780    5.3080 C.3     2  LIG2       -0.0319
      5    C       27.5330    1.5710    4.6120 C.3     2  LIG2       -0.0294
      6    C       26.8730    0.1500    4.5190 C.3     2  LIG2       -0.0090
      7    C       29.3450   -0.0420    6.3490 C.3     2  LIG2       -0.0468
      8    C       26.7530    2.4880    3.6360 C.3     2  LIG2       -0.0404
      9    C       27.7880   -1.1270    4.4710 C.3     2  LIG2        0.0664
     10    C       25.8450    0.2700    3.3760 C.3     2  LIG2       -0.0471
     11    C       28.6990   -1.3010    5.7300 C.3     2  LIG2       -0.0237
     12    C       31.2170    3.1070    4.7410 C.3     2  LIG2       -0.0593
     13    C       29.4840    3.1320    6.6140 C.3     2  LIG2       -0.0593
     14    C       25.4500    1.7440    3.3380 C.3     2  LIG2       -0.0498
     15    C       26.5450    3.9170    4.1690 C.3     2  LIG2       -0.0621
     16    C       26.9630   -2.4240    4.2900 C.3     2  LIG2       -0.0358
     17    H       29.3340    1.6770    3.3340 H       2  LIG2        0.0312
     18    H       30.8880    0.4100    4.8690 H       2  LIG2        0.0309
     19    H       27.2990    1.9130    5.6190 H       2  LIG2        0.0310
     20    H       26.2750    0.0280    5.4260 H       2  LIG2        0.0331
     21    H       30.0950   -0.3470    7.0780 H       2  LIG2        0.0269
     22    H       28.5850    0.4830    6.9240 H       2  LIG2        0.0269
     23    H       27.2930    2.5590    2.6900 H       2  LIG2        0.0301
     24    H       26.2860   -0.0260    2.4230 H       2  LIG2        0.0269
     25    H       24.9720   -0.3630    3.5400 H       2  LIG2        0.0269
     26    H       29.4820   -2.0310    5.5170 H       2  LIG2        0.0293
     27    H       28.1070   -1.7530    6.5270 H       2  LIG2        0.0293
     28    H       32.0390    3.1830    5.4540 H       2  LIG2        0.0235
     29    H       30.9520    4.1160    4.4250 H       2  LIG2        0.0235
     30    H       31.5990    2.5840    3.8620 H       2  LIG2        0.0235
     31    H       30.2770    3.2380    7.3550 H       2  LIG2        0.0235
     32    H       28.6550    2.6430    7.1190 H       2  LIG2        0.0235
     33    H       29.1460    4.1350    6.3490 H       2  LIG2        0.0235
     34    H       24.6950    1.9570    4.0960 H       2  LIG2        0.0268
     35    H       25.0320    2.0190    2.3690 H       2  LIG2        0.0268
     36    H       25.9890    3.9190    5.1090 H       2  LIG2        0.0233
     37    H       25.9890    4.5250    3.4550 H       2  LIG2        0.0233
     38    H       27.5000    4.4110    4.3480 H       2  LIG2        0.0233
     39    H       26.2450   -2.5530    5.1000 H       2  LIG2        0.0257
     40    H       27.6010   -3.3090    4.2750 H       2  LIG2        0.0257
     41    H       26.4000   -2.4270    3.3550 H       2  LIG2        0.0257
     42    H       29.1750   -1.8270    3.2960 H       2  LIG2        0.2102
@<TRIPOS>BOND
     1    35    14    1
     2    24    10    1
     3    23     8    1
     4    42     1    1
     5     1     9    1
     6    17     2    1
     7    14    10    1
     8    14     8    1
     9    14    34    1
    10    41    16    1
    11    10    25    1
    12    10     6    1
    13    37    15    1
    14     8    15    1
    15     8     5    1
    16    30    12    1
    17    15    38    1
    18    15    36    1
    19    40    16    1
    20    16     9    1
    21    16    39    1
    22     2     5    1
    23     2     4    1
    24     2     3    1
    25    29    12    1
    26     9     6    1
    27     9    11    1
    28     6     5    1
    29     6    20    1
    30     5    19    1
    31    12     3    1
    32    12    28    1
    33    18     4    1
    34     4     3    1
    35     4     7    1
    36     3    13    1
    37    26    11    1
    38    11     7    1
    39    11    27    1
    40    33    13    1
    41     7    22    1
    42     7    21    1
    43    13    32    1
    44    13    31    1
@<TRIPOS>MOLECULE
11996452_7_run_23.pdb
 42 44 0 0 0
SMALL
GASTEIGER

@<TRIPOS>ATOM
      1    O       28.7710   -2.3570    4.9630 O.3     2  LIG2       -0.3886
      2    C       27.4640    0.2870    4.7790 C.3     2  LIG2       -0.0289
      3    C       26.4530    1.0030    3.8940 C.3     2  LIG2       -0.0284
      4    C       27.0130   -0.3260    3.4480 C.3     2  LIG2       -0.0319
      5    C       28.9450    0.7470    4.9310 C.3     2  LIG2       -0.0294
      6    C       30.0750   -0.3200    4.7120 C.3     2  LIG2       -0.0090
      7    C       28.0890   -0.5090    2.3630 C.3     2  LIG2       -0.0468
      8    C       29.2040    1.3900    6.3170 C.3     2  LIG2       -0.0404
      9    C       29.7070   -1.7230    4.1050 C.3     2  LIG2        0.0664
     10    C       30.8400   -0.3590    6.0500 C.3     2  LIG2       -0.0471
     11    C       29.0830   -1.6490    2.6730 C.3     2  LIG2       -0.0237
     12    C       24.9960    1.0120    4.3950 C.3     2  LIG2       -0.0593
     13    C       26.8000    2.3040    3.1330 C.3     2  LIG2       -0.0593
     14    C       30.6450    1.0220    6.6700 C.3     2  LIG2       -0.0498
     15    C       28.9210    2.9020    6.3550 C.3     2  LIG2       -0.0621
     16    C       30.9320   -2.6690    4.0500 C.3     2  LIG2       -0.0358
     17    H       27.0990   -0.2150    5.6770 H       2  LIG2        0.0312
     18    H       26.3270   -1.1730    3.4720 H       2  LIG2        0.0309
     19    H       29.1500    1.5140    4.1860 H       2  LIG2        0.0310
     20    H       30.7770    0.1150    3.9960 H       2  LIG2        0.0331
     21    H       27.6000   -0.7110    1.4100 H       2  LIG2        0.0269
     22    H       28.6580    0.4050    2.2030 H       2  LIG2        0.0269
     23    H       28.5690    0.9110    7.0660 H       2  LIG2        0.0301
     24    H       30.4340   -1.1280    6.7090 H       2  LIG2        0.0269
     25    H       31.9000   -0.5780    5.9110 H       2  LIG2        0.0269
     26    H       28.6120   -2.6040    2.4300 H       2  LIG2        0.0293
     27    H       29.8910   -1.5450    1.9480 H       2  LIG2        0.0293
     28    H       24.2970    1.1120    3.5650 H       2  LIG2        0.0235
     29    H       24.8240    1.8420    5.0820 H       2  LIG2        0.0235
     30    H       24.7390    0.0950    4.9270 H       2  LIG2        0.0235
     31    H       26.1190    2.4500    2.2950 H       2  LIG2        0.0235
     32    H       27.8050    2.3320    2.7210 H       2  LIG2        0.0235
     33    H       26.7040    3.1690    3.7900 H       2  LIG2        0.0235
     34    H       31.3490    1.7370    6.2390 H       2  LIG2        0.0268
     35    H       30.8130    1.0010    7.7480 H       2  LIG2        0.0268
     36    H       29.5420    3.4460    5.6400 H       2  LIG2        0.0233
     37    H       29.1200    3.3140    7.3450 H       2  LIG2        0.0233
     38    H       27.8780    3.1120    6.1150 H       2  LIG2        0.0233
     39    H       31.7350   -2.2410    3.4500 H       2  LIG2        0.0257
     40    H       30.6760   -3.6350    3.6110 H       2  LIG2        0.0257
     41    H       31.3400   -2.8720    5.0410 H       2  LIG2        0.0257
     42    H       28.4670   -3.1610    4.5380 H       2  LIG2        0.2102
@<TRIPOS>BOND
     1    21     7    1
     2    27    11    1
     3    22     7    1
     4    31    13    1
     5     7    11    1
     6     7     4    1
     7    26    11    1
     8    11     9    1
     9    32    13    1
    10    13    33    1
    11    13     3    1
    12     4    18    1
    13     4     3    1
    14     4     2    1
    15    39    16    1
    16    28    12    1
    17    40    16    1
    18     3    12    1
    19     3     2    1
    20    20     6    1
    21    16     9    1
    22    16    41    1
    23     9     6    1
    24     9     1    1
    25    19     5    1
    26    12    30    1
    27    12    29    1
    28    42     1    1
    29     6     5    1
    30     6    10    1
    31     2     5    1
    32     2    17    1
    33     5     8    1
    34    36    15    1
    35    25    10    1
    36    10    14    1
    37    10    24    1
    38    38    15    1
    39    34    14    1
    40     8    15    1
    41     8    14    1
    42     8    23    1
    43    15    37    1
    44    14    35    1
