@<TRIPOS>MOLECULE
11996452_10_run_10.pdb
 42 44 0 0 0
SMALL
GASTEIGER

@<TRIPOS>ATOM
      1    O       26.0990    3.4530    2.5910 O.3     2  LIG2       -0.3886
      2    C       27.6810   -0.0280    5.1050 C.3     2  LIG2       -0.0289
      3    C       28.1780   -0.9400    3.9950 C.3     2  LIG2       -0.0284
      4    C       26.6970   -0.6100    4.0660 C.3     2  LIG2       -0.0319
      5    C       27.9160    1.5090    5.2920 C.3     2  LIG2       -0.0294
      6    C       27.6310    2.5110    4.1420 C.3     2  LIG2       -0.0090
      7    C       25.9760    0.2980    3.0430 C.3     2  LIG2       -0.0468
      8    C       29.2780    1.9250    5.9290 C.3     2  LIG2       -0.0404
      9    C       26.1180    2.8020    3.8520 C.3     2  LIG2        0.0664
     10    C       28.5010    3.7320    4.4870 C.3     2  LIG2       -0.0471
     11    C       25.2680    1.5110    3.6790 C.3     2  LIG2       -0.0237
     12    C       29.0460   -0.4840    2.7970 C.3     2  LIG2       -0.0593
     13    C       28.5840   -2.3590    4.4410 C.3     2  LIG2       -0.0593
     14    C       29.7570    3.1430    5.1230 C.3     2  LIG2       -0.0498
     15    C       30.3620    0.8320    6.0240 C.3     2  LIG2       -0.0621
     16    C       25.4200    3.7470    4.8600 C.3     2  LIG2       -0.0358
     17    H       27.6400   -0.4880    6.0940 H       2  LIG2        0.0312
     18    H       26.0460   -1.4290    4.3800 H       2  LIG2        0.0309
     19    H       27.1800    1.7680    6.0560 H       2  LIG2        0.0310
     20    H       28.0700    2.1240    3.2320 H       2  LIG2        0.0331
     21    H       26.6120    0.6110    2.2180 H       2  LIG2        0.0269
     22    H       25.2040   -0.3110    2.5690 H       2  LIG2        0.0269
     23    H       29.0890    2.2620    6.9510 H       2  LIG2        0.0301
     24    H       28.7420    4.3280    3.6050 H       2  LIG2        0.0269
     25    H       28.0130    4.3910    5.2040 H       2  LIG2        0.0269
     26    H       24.3660    1.7390    3.1080 H       2  LIG2        0.0293
     27    H       24.8940    1.1950    4.6550 H       2  LIG2        0.0293
     28    H       28.9690   -1.2080    1.9850 H       2  LIG2        0.0235
     29    H       30.0990   -0.4310    3.0710 H       2  LIG2        0.0235
     30    H       28.7880    0.4670    2.3560 H       2  LIG2        0.0235
     31    H       28.4880   -3.0720    3.6210 H       2  LIG2        0.0235
     32    H       27.9640   -2.7290    5.2600 H       2  LIG2        0.0235
     33    H       29.6170   -2.3800    4.7840 H       2  LIG2        0.0235
     34    H       30.2620    3.8750    5.7530 H       2  LIG2        0.0268
     35    H       30.4620    2.8440    4.3450 H       2  LIG2        0.0268
     36    H       30.6570    0.4640    5.0440 H       2  LIG2        0.0233
     37    H       30.0230   -0.0190    6.6150 H       2  LIG2        0.0233
     38    H       31.2590    1.2180    6.5070 H       2  LIG2        0.0233
     39    H       25.4860    3.3650    5.8800 H       2  LIG2        0.0257
     40    H       24.3610    3.8650    4.6260 H       2  LIG2        0.0257
     41    H       25.8500    4.7480    4.8550 H       2  LIG2        0.0257
     42    H       26.4430    4.3430    2.7040 H       2  LIG2        0.2102
@<TRIPOS>BOND
     1    28    12    1
     2    21     7    1
     3    30    12    1
     4    22     7    1
     5     1    42    1
     6     1     9    1
     7    12    29    1
     8    12     3    1
     9     7    11    1
    10     7     4    1
    11    26    11    1
    12    20     6    1
    13    24    10    1
    14    31    13    1
    15    11     9    1
    16    11    27    1
    17     9     6    1
    18     9    16    1
    19     3     4    1
    20     3    13    1
    21     3     2    1
    22     4    18    1
    23     4     2    1
    24     6    10    1
    25     6     5    1
    26    35    14    1
    27    13    33    1
    28    13    32    1
    29    10    14    1
    30    10    25    1
    31    40    16    1
    32    41    16    1
    33    16    39    1
    34    36    15    1
    35     2     5    1
    36     2    17    1
    37    14    34    1
    38    14     8    1
    39     5     8    1
    40     5    19    1
    41     8    15    1
    42     8    23    1
    43    15    38    1
    44    15    37    1
@<TRIPOS>MOLECULE
11996452_10_run_7.pdb
 42 44 0 0 0
SMALL
GASTEIGER

@<TRIPOS>ATOM
      1    O       24.5340    1.3360    4.5670 O.3     2  LIG2       -0.3886
      2    C       29.0460    1.5960    3.8480 C.3     2  LIG2       -0.0289
      3    C       29.4680    2.3050    5.1260 C.3     2  LIG2       -0.0284
      4    C       28.5380    3.0220    4.1610 C.3     2  LIG2       -0.0319
      5    C       28.0900    0.3670    3.6780 C.3     2  LIG2       -0.0294
      6    C       26.6800    0.3490    4.3270 C.3     2  LIG2       -0.0090
      7    C       27.0460    3.2980    4.4610 C.3     2  LIG2       -0.0468
      8    C       28.7220   -1.0370    3.9280 C.3     2  LIG2       -0.0404
      9    C       25.6020    1.2540    3.6360 C.3     2  LIG2        0.0664
     10    C       26.3390   -1.1470    4.4370 C.3     2  LIG2       -0.0471
     11    C       26.0830    2.7140    3.4070 C.3     2  LIG2       -0.0237
     12    C       29.0020    1.9150    6.5500 C.3     2  LIG2       -0.0593
     13    C       30.9290    2.7930    5.1550 C.3     2  LIG2       -0.0593
     14    C       27.6740   -1.8260    4.7290 C.3     2  LIG2       -0.0498
     15    C       30.1080   -1.0630    4.6050 C.3     2  LIG2       -0.0621
     16    C       25.0120    0.6930    2.3200 C.3     2  LIG2       -0.0358
     17    H       29.8190    1.5350    3.0800 H       2  LIG2        0.0312
     18    H       28.9810    3.8540    3.6110 H       2  LIG2        0.0309
     19    H       27.8860    0.3750    2.6060 H       2  LIG2        0.0310
     20    H       26.7710    0.6750    5.3550 H       2  LIG2        0.0331
     21    H       26.7450    3.0050    5.4640 H       2  LIG2        0.0269
     22    H       26.9180    4.3820    4.4480 H       2  LIG2        0.0269
     23    H       28.8410   -1.5360    2.9630 H       2  LIG2        0.0301
     24    H       25.6090   -1.3450    5.2230 H       2  LIG2        0.0269
     25    H       25.9340   -1.5420    3.5060 H       2  LIG2        0.0269
     26    H       25.2190    3.3750    3.3100 H       2  LIG2        0.0293
     27    H       26.5810    2.7800    2.4380 H       2  LIG2        0.0293
     28    H       29.1410    2.7570    7.2290 H       2  LIG2        0.0235
     29    H       29.5930    1.0910    6.9460 H       2  LIG2        0.0235
     30    H       27.9640    1.6350    6.6510 H       2  LIG2        0.0235
     31    H       31.0480    3.6430    5.8290 H       2  LIG2        0.0235
     32    H       31.2790    3.1150    4.1720 H       2  LIG2        0.0235
     33    H       31.5990    2.0030    5.4920 H       2  LIG2        0.0235
     34    H       27.6530   -2.8790    4.4470 H       2  LIG2        0.0268
     35    H       27.8860   -1.7820    5.8000 H       2  LIG2        0.0268
     36    H       30.0830   -0.6290    5.6020 H       2  LIG2        0.0233
     37    H       30.8500   -0.5200    4.0190 H       2  LIG2        0.0233
     38    H       30.4690   -2.0870    4.7070 H       2  LIG2        0.0233
     39    H       25.7910    0.4990    1.5810 H       2  LIG2        0.0257
     40    H       24.3070    1.3940    1.8700 H       2  LIG2        0.0257
     41    H       24.4660   -0.2370    2.4730 H       2  LIG2        0.0257
     42    H       24.8860    1.6420    5.4070 H       2  LIG2        0.2102
@<TRIPOS>BOND
     1    39    16    1
     2    40    16    1
     3    16    41    1
     4    16     9    1
     5    27    11    1
     6    19     5    1
     7    23     8    1
     8    17     2    1
     9    26    11    1
    10    11     9    1
    11    11     7    1
    12    25    10    1
    13    18     4    1
    14     9     6    1
    15     9     1    1
    16     5     2    1
    17     5     8    1
    18     5     6    1
    19     2     4    1
    20     2     3    1
    21     8    15    1
    22     8    14    1
    23    37    15    1
    24     4     7    1
    25     4     3    1
    26    32    13    1
    27     6    10    1
    28     6    20    1
    29    10    14    1
    30    10    24    1
    31    34    14    1
    32    22     7    1
    33     7    21    1
    34     1    42    1
    35    15    38    1
    36    15    36    1
    37    14    35    1
    38     3    13    1
    39     3    12    1
    40    13    33    1
    41    13    31    1
    42    12    30    1
    43    12    29    1
    44    12    28    1
@<TRIPOS>MOLECULE
11996452_10_run_22.pdb
 42 44 0 0 0
SMALL
GASTEIGER

@<TRIPOS>ATOM
      1    O       28.5660   -1.9560    2.7200 O.3     2  LIG2       -0.3886
      2    C       28.3010    1.4750    5.7360 C.3     2  LIG2       -0.0289
      3    C       29.5280    2.2730    5.3240 C.3     2  LIG2       -0.0284
      4    C       29.7130    0.8600    5.8500 C.3     2  LIG2       -0.0319
      5    C       27.1750    0.8690    4.8320 C.3     2  LIG2       -0.0294
      6    C       27.5190   -0.0170    3.6050 C.3     2  LIG2       -0.0090
      7    C       30.1470   -0.3300    4.9620 C.3     2  LIG2       -0.0468
      8    C       26.0510    1.8520    4.3800 C.3     2  LIG2       -0.0404
      9    C       28.0070   -1.4700    3.9310 C.3     2  LIG2        0.0664
     10    C       26.2770    0.0940    2.7040 C.3     2  LIG2       -0.0471
     11    C       29.1560   -1.5110    4.9780 C.3     2  LIG2       -0.0237
     12    C       29.8950    2.6430    3.8660 C.3     2  LIG2       -0.0593
     13    C       29.9220    3.4150    6.2810 C.3     2  LIG2       -0.0593
     14    C       25.7850    1.5250    2.9020 C.3     2  LIG2       -0.0498
     15    C       26.3130    3.3550    4.6020 C.3     2  LIG2       -0.0621
     16    C       26.8960   -2.4640    4.3470 C.3     2  LIG2       -0.0358
     17    H       27.8490    1.7830    6.6810 H       2  LIG2        0.0312
     18    H       30.1590    0.7810    6.8430 H       2  LIG2        0.0309
     19    H       26.6660    0.1860    5.5150 H       2  LIG2        0.0310
     20    H       28.3010    0.4710    3.0370 H       2  LIG2        0.0331
     21    H       30.3890   -0.0420    3.9410 H       2  LIG2        0.0269
     22    H       31.0920   -0.6980    5.3670 H       2  LIG2        0.0269
     23    H       25.1420    1.6120    4.9370 H       2  LIG2        0.0301
     24    H       26.5090   -0.1070    1.6570 H       2  LIG2        0.0269
     25    H       25.4920   -0.5990    3.0040 H       2  LIG2        0.0269
     26    H       29.7120   -2.4450    4.8770 H       2  LIG2        0.0293
     27    H       28.7260   -1.5620    5.9800 H       2  LIG2        0.0293
     28    H       30.9550    2.8870    3.8010 H       2  LIG2        0.0235
     29    H       29.3490    3.5250    3.5340 H       2  LIG2        0.0235
     30    H       29.7320    1.8750    3.1250 H       2  LIG2        0.0235
     31    H       30.9880    3.6370    6.2120 H       2  LIG2        0.0235
     32    H       29.7140    3.1720    7.3250 H       2  LIG2        0.0235
     33    H       29.3740    4.3270    6.0480 H       2  LIG2        0.0235
     34    H       24.7290    1.6190    2.6470 H       2  LIG2        0.0268
     35    H       26.3370    2.2020    2.2460 H       2  LIG2        0.0268
     36    H       27.1780    3.7060    4.0420 H       2  LIG2        0.0233
     37    H       26.4790    3.5820    5.6550 H       2  LIG2        0.0233
     38    H       25.4580    3.9490    4.2780 H       2  LIG2        0.0233
     39    H       26.3430   -2.1070    5.2170 H       2  LIG2        0.0257
     40    H       27.3110   -3.4390    4.6060 H       2  LIG2        0.0257
     41    H       26.1750   -2.6390    3.5490 H       2  LIG2        0.0257
     42    H       27.8510   -2.1070    2.0960 H       2  LIG2        0.2102
@<TRIPOS>BOND
     1    24    10    1
     2    42     1    1
     3    35    14    1
     4    34    14    1
     5    10    14    1
     6    10    25    1
     7    10     6    1
     8     1     9    1
     9    14     8    1
    10    20     6    1
    11    30    12    1
    12    29    12    1
    13    41    16    1
    14     6     9    1
    15     6     5    1
    16    28    12    1
    17    12     3    1
    18     9    16    1
    19     9    11    1
    20    21     7    1
    21    36    15    1
    22    38    15    1
    23    16    40    1
    24    16    39    1
    25     8    15    1
    26     8     5    1
    27     8    23    1
    28    15    37    1
    29     5    19    1
    30     5     2    1
    31    26    11    1
    32     7    11    1
    33     7    22    1
    34     7     4    1
    35    11    27    1
    36     3     2    1
    37     3     4    1
    38     3    13    1
    39     2     4    1
    40     2    17    1
    41     4    18    1
    42    33    13    1
    43    31    13    1
    44    13    32    1
@<TRIPOS>MOLECULE
11996452_10_run_14.pdb
 42 44 0 0 0
SMALL
GASTEIGER

@<TRIPOS>ATOM
      1    O       28.7760    3.3930    6.5780 O.3     2  LIG2       -0.3886
      2    C       28.2780    0.1560    3.3830 C.3     2  LIG2       -0.0289
      3    C       28.3650   -1.0840    4.2590 C.3     2  LIG2       -0.0284
      4    C       29.5680   -0.1600    4.1720 C.3     2  LIG2       -0.0319
      5    C       27.4370    1.4580    3.6050 C.3     2  LIG2       -0.0294
      6    C       27.4970    2.2330    4.9480 C.3     2  LIG2       -0.0090
      7    C       30.0380    0.7390    5.3390 C.3     2  LIG2       -0.0468
      8    C       25.9350    1.3880    3.1890 C.3     2  LIG2       -0.0404
      9    C       28.8030    3.0620    5.1980 C.3     2  LIG2        0.0664
     10    C       26.1760    3.0230    4.9830 C.3     2  LIG2       -0.0471
     11    C       30.1030    2.2380    4.9820 C.3     2  LIG2       -0.0237
     12    C       27.5990   -1.2830    5.5900 C.3     2  LIG2       -0.0593
     13    C       28.4740   -2.4210    3.4990 C.3     2  LIG2       -0.0593
     14    C       25.1610    2.1060    4.3060 C.3     2  LIG2       -0.0498
     15    C       25.3610   -0.0140    2.8960 C.3     2  LIG2       -0.0621
     16    C       28.9020    4.3940    4.4160 C.3     2  LIG2       -0.0358
     17    H       28.3300   -0.0360    2.3100 H       2  LIG2        0.0312
     18    H       30.4230   -0.5510    3.6190 H       2  LIG2        0.0309
     19    H       27.8770    2.1480    2.8830 H       2  LIG2        0.0310
     20    H       27.3990    1.5230    5.7600 H       2  LIG2        0.0331
     21    H       29.4760    0.5850    6.2580 H       2  LIG2        0.0269
     22    H       31.0530    0.4250    5.5910 H       2  LIG2        0.0269
     23    H       25.8060    1.9710    2.2740 H       2  LIG2        0.0301
     24    H       25.8730    3.2730    6.0000 H       2  LIG2        0.0269
     25    H       26.2440    3.9550    4.4230 H       2  LIG2        0.0269
     26    H       30.9270    2.7000    5.5290 H       2  LIG2        0.0293
     27    H       30.4030    2.3100    3.9350 H       2  LIG2        0.0293
     28    H       28.0850   -2.0560    6.1860 H       2  LIG2        0.0235
     29    H       26.5790   -1.6190    5.4110 H       2  LIG2        0.0235
     30    H       27.5370   -0.4210    6.2370 H       2  LIG2        0.0235
     31    H       28.9740   -3.1790    4.1050 H       2  LIG2        0.0235
     32    H       29.0440   -2.3250    2.5730 H       2  LIG2        0.0235
     33    H       27.4890   -2.8010    3.2330 H       2  LIG2        0.0235
     34    H       24.3150    2.6710    3.9170 H       2  LIG2        0.0268
     35    H       24.7670    1.3900    5.0310 H       2  LIG2        0.0268
     36    H       25.3990   -0.6610    3.7700 H       2  LIG2        0.0233
     37    H       25.9010   -0.5070    2.0880 H       2  LIG2        0.0233
     38    H       24.3180    0.0530    2.5890 H       2  LIG2        0.0233
     39    H       28.8220    4.2340    3.3390 H       2  LIG2        0.0257
     40    H       29.8550    4.8930    4.5980 H       2  LIG2        0.0257
     41    H       28.1240    5.1020    4.7010 H       2  LIG2        0.0257
     42    H       28.8490    2.5810    7.0860 H       2  LIG2        0.2102
@<TRIPOS>BOND
     1    37    15    1
     2    23     8    1
     3    17     2    1
     4    32    13    1
     5    38    15    1
     6    19     5    1
     7    15     8    1
     8    15    36    1
     9     8     5    1
    10     8    14    1
    11    33    13    1
    12    39    16    1
    13     2     5    1
    14     2     4    1
    15     2     3    1
    16    13    31    1
    17    13     3    1
    18     5     6    1
    19    18     4    1
    20    34    14    1
    21    27    11    1
    22     4     3    1
    23     4     7    1
    24     3    12    1
    25    14    10    1
    26    14    35    1
    27    16    40    1
    28    16    41    1
    29    16     9    1
    30    25    10    1
    31     6    10    1
    32     6     9    1
    33     6    20    1
    34    11     9    1
    35    11     7    1
    36    11    26    1
    37    10    24    1
    38     9     1    1
    39     7    22    1
    40     7    21    1
    41    29    12    1
    42    12    28    1
    43    12    30    1
    44     1    42    1
@<TRIPOS>MOLECULE
11996452_10_run_6.pdb
 42 44 0 0 0
SMALL
GASTEIGER

@<TRIPOS>ATOM
      1    O       27.4350   -0.4150    5.4100 O.3     2  LIG2       -0.3886
      2    C       25.8270    3.2330    3.1650 C.3     2  LIG2       -0.0289
      3    C       24.6510    3.5860    4.0610 C.3     2  LIG2       -0.0284
      4    C       24.6550    2.2430    3.3510 C.3     2  LIG2       -0.0319
      5    C       27.3020    2.8960    3.5690 C.3     2  LIG2       -0.0294
      6    C       27.6150    1.8260    4.6490 C.3     2  LIG2       -0.0090
      7    C       24.8490    0.8930    4.0810 C.3     2  LIG2       -0.0468
      8    C       28.2330    4.1150    3.8550 C.3     2  LIG2       -0.0404
      9    C       27.4210    0.3350    4.2060 C.3     2  LIG2        0.0664
     10    C       29.0180    2.2060    5.1550 C.3     2  LIG2       -0.0471
     11    C       26.0380    0.0660    3.5510 C.3     2  LIG2       -0.0237
     12    C       24.7100    3.6790    5.6050 C.3     2  LIG2       -0.0593
     13    C       23.6910    4.6530    3.4970 C.3     2  LIG2       -0.0593
     14    C       29.0480    3.7310    5.1010 C.3     2  LIG2       -0.0498
     15    C       27.5490    5.4880    4.0120 C.3     2  LIG2       -0.0621
     16    C       28.5390   -0.2380    3.3030 C.3     2  LIG2       -0.0358
     17    H       25.8480    3.7560    2.2070 H       2  LIG2        0.0312
     18    H       23.9390    2.1390    2.5340 H       2  LIG2        0.0309
     19    H       27.7060    2.4680    2.6500 H       2  LIG2        0.0310
     20    H       26.9720    2.0010    5.5020 H       2  LIG2        0.0331
     21    H       24.8970    0.9900    5.1630 H       2  LIG2        0.0269
     22    H       23.9450    0.3070    3.9050 H       2  LIG2        0.0269
     23    H       28.9340    4.2130    3.0230 H       2  LIG2        0.0301
     24    H       29.2050    1.8380    6.1650 H       2  LIG2        0.0269
     25    H       29.8030    1.8100    4.5120 H       2  LIG2        0.0269
     26    H       25.7950   -0.9960    3.6280 H       2  LIG2        0.0293
     27    H       26.1080    0.2480    2.4770 H       2  LIG2        0.0293
     28    H       23.7060    3.5900    6.0210 H       2  LIG2        0.0235
     29    H       25.1000    4.6430    5.9270 H       2  LIG2        0.0235
     30    H       25.2940    2.9200    6.1050 H       2  LIG2        0.0235
     31    H       22.6890    4.5420    3.9140 H       2  LIG2        0.0235
     32    H       23.5940    4.5910    2.4120 H       2  LIG2        0.0235
     33    H       24.0420    5.6570    3.7320 H       2  LIG2        0.0235
     34    H       30.0700    4.1050    5.0510 H       2  LIG2        0.0268
     35    H       28.5960    4.1430    6.0060 H       2  LIG2        0.0268
     36    H       26.8620    5.5080    4.8550 H       2  LIG2        0.0233
     37    H       26.9920    5.7640    3.1170 H       2  LIG2        0.0233
     38    H       28.2890    6.2710    4.1810 H       2  LIG2        0.0233
     39    H       28.6650    0.3550    2.3950 H       2  LIG2        0.0257
     40    H       28.3160   -1.2600    2.9930 H       2  LIG2        0.0257
     41    H       29.5040   -0.2730    3.8080 H       2  LIG2        0.0257
     42    H       27.3530   -1.3460    5.1890 H       2  LIG2        0.2102
@<TRIPOS>BOND
     1    17     2    1
     2    39    16    1
     3    32    13    1
     4    27    11    1
     5    18     4    1
     6    19     5    1
     7    40    16    1
     8    23     8    1
     9    37    15    1
    10     2     4    1
    11     2     5    1
    12     2     3    1
    13    16    41    1
    14    16     9    1
    15     4     3    1
    16     4     7    1
    17    13    33    1
    18    13    31    1
    19    13     3    1
    20    11    26    1
    21    11     7    1
    22    11     9    1
    23     5     8    1
    24     5     6    1
    25     8    15    1
    26     8    14    1
    27    22     7    1
    28    15    38    1
    29    15    36    1
    30     3    12    1
    31     7    21    1
    32     9     6    1
    33     9     1    1
    34    25    10    1
    35     6    10    1
    36     6    20    1
    37    34    14    1
    38    14    10    1
    39    14    35    1
    40    10    24    1
    41    42     1    1
    42    12    29    1
    43    12    28    1
    44    12    30    1
@<TRIPOS>MOLECULE
11996452_10_run_17.pdb
 42 44 0 0 0
SMALL
GASTEIGER

@<TRIPOS>ATOM
      1    O       26.4070    3.1520    5.6050 O.3     2  LIG2       -0.3886
      2    C       29.8490    0.3430    4.5110 C.3     2  LIG2       -0.0289
      3    C       30.3940    0.0540    5.9010 C.3     2  LIG2       -0.0284
      4    C       30.4310    1.4810    5.3790 C.3     2  LIG2       -0.0319
      5    C       28.3640    0.3200    4.0150 C.3     2  LIG2       -0.0294
      6    C       27.2520    1.0960    4.7720 C.3     2  LIG2       -0.0090
      7    C       29.5330    2.6130    5.9310 C.3     2  LIG2       -0.0468
      8    C       27.7770   -1.0810    3.6600 C.3     2  LIG2       -0.0404
      9    C       27.2640    2.6530    4.5910 C.3     2  LIG2        0.0664
     10    C       25.9540    0.3770    4.3670 C.3     2  LIG2       -0.0471
     11    C       28.6570    3.2900    4.8570 C.3     2  LIG2       -0.0237
     12    C       29.5330   -0.3320    7.1280 C.3     2  LIG2       -0.0593
     13    C       31.7420   -0.6940    5.9360 C.3     2  LIG2       -0.0593
     14    C       26.3510   -1.0910    4.2340 C.3     2  LIG2       -0.0498
     15    C       28.5920   -2.3090    4.1150 C.3     2  LIG2       -0.0621
     16    C       26.7130    3.1660    3.2390 C.3     2  LIG2       -0.0358
     17    H       30.4860    0.0120    3.6890 H       2  LIG2        0.0312
     18    H       31.4200    1.8640    5.1240 H       2  LIG2        0.0309
     19    H       28.4290    0.8290    3.0520 H       2  LIG2        0.0310
     20    H       27.3480    0.8890    5.8310 H       2  LIG2        0.0331
     21    H       28.9320    2.3110    6.7860 H       2  LIG2        0.0269
     22    H       30.2000    3.3780    6.3310 H       2  LIG2        0.0269
     23    H       27.6930   -1.1510    2.5730 H       2  LIG2        0.0301
     24    H       25.1620    0.5110    5.1060 H       2  LIG2        0.0269
     25    H       25.5720    0.7320    3.4110 H       2  LIG2        0.0269
     26    H       28.5370    4.3450    5.1090 H       2  LIG2        0.0293
     27    H       29.2300    3.3000    3.9280 H       2  LIG2        0.0293
     28    H       30.0870   -0.1380    8.0460 H       2  LIG2        0.0235
     29    H       29.2940   -1.3940    7.1230 H       2  LIG2        0.0235
     30    H       28.5990    0.2000    7.2400 H       2  LIG2        0.0235
     31    H       32.2880   -0.4790    6.8550 H       2  LIG2        0.0235
     32    H       32.3920   -0.4160    5.1050 H       2  LIG2        0.0235
     33    H       31.5920   -1.7720    5.8800 H       2  LIG2        0.0235
     34    H       25.6570   -1.6320    3.5910 H       2  LIG2        0.0268
     35    H       26.3270   -1.5720    5.2140 H       2  LIG2        0.0268
     36    H       28.6890   -2.3570    5.1970 H       2  LIG2        0.0233
     37    H       29.5940   -2.3060    3.6860 H       2  LIG2        0.0233
     38    H       28.1100   -3.2330    3.7930 H       2  LIG2        0.0233
     39    H       27.2570    2.7380    2.3950 H       2  LIG2        0.0257
     40    H       26.7970    4.2510    3.1610 H       2  LIG2        0.0257
     41    H       25.6580    2.9290    3.1040 H       2  LIG2        0.0257
     42    H       25.5420    2.7460    5.4990 H       2  LIG2        0.2102
@<TRIPOS>BOND
     1    39    16    1
     2    23     8    1
     3    19     5    1
     4    41    16    1
     5    40    16    1
     6    16     9    1
     7    25    10    1
     8    34    14    1
     9     8     5    1
    10     8    15    1
    11     8    14    1
    12    37    15    1
    13    17     2    1
    14    38    15    1
    15    27    11    1
    16     5     2    1
    17     5     6    1
    18    15    36    1
    19    14    10    1
    20    14    35    1
    21    10     6    1
    22    10    24    1
    23     2     4    1
    24     2     3    1
    25     9     6    1
    26     9    11    1
    27     9     1    1
    28     6    20    1
    29    11    26    1
    30    11     7    1
    31    32    13    1
    32    18     4    1
    33     4     3    1
    34     4     7    1
    35    42     1    1
    36    33    13    1
    37     3    13    1
    38     3    12    1
    39     7    22    1
    40     7    21    1
    41    13    31    1
    42    29    12    1
    43    12    30    1
    44    12    28    1
@<TRIPOS>MOLECULE
11996452_10_run_21.pdb
 42 44 0 0 0
SMALL
GASTEIGER

@<TRIPOS>ATOM
      1    O       25.2980    1.0470    1.7550 O.3     2  LIG2       -0.3886
      2    C       28.1850    0.8680    5.3010 C.3     2  LIG2       -0.0289
      3    C       29.3960    0.2570    4.6140 C.3     2  LIG2       -0.0284
      4    C       28.1090   -0.5470    4.6870 C.3     2  LIG2       -0.0319
      5    C       27.2820    2.0560    4.8250 C.3     2  LIG2       -0.0294
      6    C       26.6670    2.0760    3.4000 C.3     2  LIG2       -0.0090
      7    C       27.2190   -0.8460    3.4570 C.3     2  LIG2       -0.0468
      8    C       27.8260    3.4910    5.1040 C.3     2  LIG2       -0.0404
      9    C       25.4650    1.0980    3.1630 C.3     2  LIG2        0.0664
     10    C       26.3900    3.5660    3.1340 C.3     2  LIG2       -0.0471
     11    C       25.7640   -0.3600    3.6120 C.3     2  LIG2       -0.0237
     12    C       29.9750    0.7260    3.2570 C.3     2  LIG2       -0.0593
     13    C       30.5320   -0.1860    5.5560 C.3     2  LIG2       -0.0593
     14    C       27.5320    4.3000    3.8310 C.3     2  LIG2       -0.0498
     15    C       29.3050    3.6000    5.5290 C.3     2  LIG2       -0.0621
     16    C       24.1130    1.5540    3.7620 C.3     2  LIG2       -0.0358
     17    H       28.2420    0.9010    6.3900 H       2  LIG2        0.0312
     18    H       28.1250   -1.4010    5.3670 H       2  LIG2        0.0309
     19    H       26.4160    1.9720    5.4830 H       2  LIG2        0.0310
     20    H       27.4410    1.8220    2.6870 H       2  LIG2        0.0331
     21    H       27.6460   -0.4960    2.5200 H       2  LIG2        0.0269
     22    H       27.1860   -1.9310    3.3480 H       2  LIG2        0.0269
     23    H       27.2390    3.9280    5.9140 H       2  LIG2        0.0301
     24    H       26.3600    3.7950    2.0680 H       2  LIG2        0.0269
     25    H       25.4430    3.8880    3.5650 H       2  LIG2        0.0269
     26    H       25.1000   -1.0500    3.0860 H       2  LIG2        0.0293
     27    H       25.4920   -0.4750    4.6620 H       2  LIG2        0.0293
     28    H       30.5860   -0.0650    2.8210 H       2  LIG2        0.0235
     29    H       30.6240    1.5910    3.3840 H       2  LIG2        0.0235
     30    H       29.2530    0.9830    2.4950 H       2  LIG2        0.0235
     31    H       31.1250   -0.9870    5.1100 H       2  LIG2        0.0235
     32    H       30.1570   -0.5610    6.5100 H       2  LIG2        0.0235
     33    H       31.2030    0.6430    5.7780 H       2  LIG2        0.0235
     34    H       27.2590    5.3310    4.0570 H       2  LIG2        0.0268
     35    H       28.4060    4.3330    3.1770 H       2  LIG2        0.0268
     36    H       29.9800    3.2330    4.7600 H       2  LIG2        0.0233
     37    H       29.5010    3.0420    6.4450 H       2  LIG2        0.0233
     38    H       29.5740    4.6380    5.7250 H       2  LIG2        0.0233
     39    H       24.1860    1.7210    4.8380 H       2  LIG2        0.0257
     40    H       23.3350    0.8060    3.6040 H       2  LIG2        0.0257
     41    H       23.7480    2.4770    3.3100 H       2  LIG2        0.0257
     42    H       24.5670    0.4560    1.5570 H       2  LIG2        0.2102
@<TRIPOS>BOND
     1    42     1    1
     2     1     9    1
     3    24    10    1
     4    30    12    1
     5    21     7    1
     6    20     6    1
     7    28    12    1
     8    26    11    1
     9    10     6    1
    10    10    25    1
    11    10    14    1
    12     9     6    1
    13     9    11    1
    14     9    16    1
    15    35    14    1
    16    12    29    1
    17    12     3    1
    18    41    16    1
    19    22     7    1
    20     6     5    1
    21     7    11    1
    22     7     4    1
    23    40    16    1
    24    11    27    1
    25    16    39    1
    26    14    34    1
    27    14     8    1
    28     3     4    1
    29     3     2    1
    30     3    13    1
    31     4     2    1
    32     4    18    1
    33    36    15    1
    34     5     8    1
    35     5     2    1
    36     5    19    1
    37     8    15    1
    38     8    23    1
    39    31    13    1
    40     2    17    1
    41    15    38    1
    42    15    37    1
    43    13    33    1
    44    13    32    1
@<TRIPOS>MOLECULE
11996452_10_run_9.pdb
 42 44 0 0 0
SMALL
GASTEIGER

@<TRIPOS>ATOM
      1    O       23.9960    6.6440    2.5890 O.3     2  LIG2       -0.3886
      2    C       25.6560    3.0010    4.8030 C.3     2  LIG2       -0.0289
      3    C       25.3220    1.9140    3.7940 C.3     2  LIG2       -0.0284
      4    C       24.1870    2.6960    4.4350 C.3     2  LIG2       -0.0319
      5    C       26.3270    4.3940    4.5590 C.3     2  LIG2       -0.0294
      6    C       25.7900    5.3650    3.4730 C.3     2  LIG2       -0.0090
      7    C       23.3190    3.7210    3.6690 C.3     2  LIG2       -0.0468
      8    C       27.8820    4.4000    4.4420 C.3     2  LIG2       -0.0404
      9    C       24.4480    6.0970    3.8180 C.3     2  LIG2        0.0664
     10    C       26.9930    6.2690    3.1530 C.3     2  LIG2       -0.0471
     11    C       23.3270    5.1310    4.2930 C.3     2  LIG2       -0.0237
     12    C       25.5990    2.0010    2.2740 C.3     2  LIG2       -0.0593
     13    C       25.5210    0.4690    4.2930 C.3     2  LIG2       -0.0593
     14    C       28.2080    5.3550    3.2830 C.3     2  LIG2       -0.0498
     15    C       28.5700    3.0290    4.2720 C.3     2  LIG2       -0.0621
     16    C       24.5730    7.2720    4.8170 C.3     2  LIG2       -0.0358
     17    H       25.9770    2.6370    5.7810 H       2  LIG2        0.0312
     18    H       23.5830    2.1430    5.1570 H       2  LIG2        0.0309
     19    H       26.1330    4.9170    5.4970 H       2  LIG2        0.0310
     20    H       25.6320    4.8050    2.5590 H       2  LIG2        0.0331
     21    H       23.5430    3.7680    2.6050 H       2  LIG2        0.0269
     22    H       22.2910    3.3570    3.7100 H       2  LIG2        0.0269
     23    H       28.2930    4.8390    5.3540 H       2  LIG2        0.0301
     24    H       26.9260    6.7050    2.1550 H       2  LIG2        0.0269
     25    H       27.0860    7.0900    3.8630 H       2  LIG2        0.0269
     26    H       22.3510    5.5950    4.1380 H       2  LIG2        0.0293
     27    H       23.3960    5.0070    5.3760 H       2  LIG2        0.0293
     28    H       24.9680    1.2910    1.7400 H       2  LIG2        0.0235
     29    H       26.6310    1.7380    2.0460 H       2  LIG2        0.0235
     30    H       25.4090    2.9580    1.8090 H       2  LIG2        0.0235
     31    H       24.8730   -0.2270    3.7570 H       2  LIG2        0.0235
     32    H       25.2950    0.3620    5.3550 H       2  LIG2        0.0235
     33    H       26.5520    0.1450    4.1490 H       2  LIG2        0.0235
     34    H       29.1160    5.9280    3.4700 H       2  LIG2        0.0268
     35    H       28.3590    4.8040    2.3530 H       2  LIG2        0.0268
     36    H       28.2620    2.5290    3.3570 H       2  LIG2        0.0233
     37    H       28.3520    2.3650    5.1090 H       2  LIG2        0.0233
     38    H       29.6530    3.1430    4.2290 H       2  LIG2        0.0233
     39    H       25.0180    6.9510    5.7600 H       2  LIG2        0.0257
     40    H       23.5980    7.7030    5.0490 H       2  LIG2        0.0257
     41    H       25.1840    8.0860    4.4260 H       2  LIG2        0.0257
     42    H       24.6560    7.2670    2.2730 H       2  LIG2        0.2102
@<TRIPOS>BOND
     1    28    12    1
     2    30    12    1
     3    29    12    1
     4    24    10    1
     5    42     1    1
     6    12     3    1
     7    35    14    1
     8    20     6    1
     9     1     9    1
    10    21     7    1
    11    10    14    1
    12    10     6    1
    13    10    25    1
    14    14    34    1
    15    14     8    1
    16    36    15    1
    17     6     9    1
    18     6     5    1
    19     7    22    1
    20     7    11    1
    21     7     4    1
    22    31    13    1
    23     3    13    1
    24     3     4    1
    25     3     2    1
    26     9    11    1
    27     9    16    1
    28    26    11    1
    29    33    13    1
    30    38    15    1
    31    15     8    1
    32    15    37    1
    33    13    32    1
    34    11    27    1
    35    41    16    1
    36     4     2    1
    37     4    18    1
    38     8     5    1
    39     8    23    1
    40     5     2    1
    41     5    19    1
    42     2    17    1
    43    16    40    1
    44    16    39    1
@<TRIPOS>MOLECULE
11996452_10_run_3.pdb
 42 44 0 0 0
SMALL
GASTEIGER

@<TRIPOS>ATOM
      1    O       27.7380   -1.9580    5.1110 O.3     2  LIG2       -0.3886
      2    C       28.4260    2.3280    3.6660 C.3     2  LIG2       -0.0289
      3    C       27.1340    2.9700    4.1450 C.3     2  LIG2       -0.0284
      4    C       27.0630    1.8600    3.1100 C.3     2  LIG2       -0.0319
      5    C       29.4010    1.3840    4.4470 C.3     2  LIG2       -0.0294
      6    C       28.8780    0.1230    5.1870 C.3     2  LIG2       -0.0090
      7    C       26.5130    0.4460    3.4120 C.3     2  LIG2       -0.0468
      8    C       30.4170    2.0810    5.4040 C.3     2  LIG2       -0.0404
      9    C       28.4770   -1.0850    4.2710 C.3     2  LIG2        0.0664
     10    C       29.9530   -0.1590    6.2500 C.3     2  LIG2       -0.0471
     11    C       27.5160   -0.6870    3.1170 C.3     2  LIG2       -0.0237
     12    C       26.5260    2.7920    5.5570 C.3     2  LIG2       -0.0593
     13    C       26.8790    4.4010    3.6300 C.3     2  LIG2       -0.0593
     14    C       30.4440    1.2210    6.6770 C.3     2  LIG2       -0.0498
     15    C       30.1660    3.5700    5.7170 C.3     2  LIG2       -0.0621
     16    C       29.6600   -1.9020    3.6990 C.3     2  LIG2       -0.0358
     17    H       29.0200    2.9430    2.9870 H       2  LIG2        0.0312
     18    H       26.7880    2.1730    2.1010 H       2  LIG2        0.0309
     19    H       30.0270    0.9800    3.6500 H       2  LIG2        0.0310
     20    H       28.0040    0.4010    5.7630 H       2  LIG2        0.0331
     21    H       26.1020    0.3480    4.4150 H       2  LIG2        0.0269
     22    H       25.6540    0.2950    2.7550 H       2  LIG2        0.0269
     23    H       31.4090    2.0250    4.9490 H       2  LIG2        0.0301
     24    H       29.5570   -0.7230    7.0960 H       2  LIG2        0.0269
     25    H       30.7900   -0.7260    5.8420 H       2  LIG2        0.0269
     26    H       26.9680   -1.5670    2.7740 H       2  LIG2        0.0293
     27    H       28.1040   -0.3830    2.2490 H       2  LIG2        0.0293
     28    H       25.4650    3.0400    5.5390 H       2  LIG2        0.0235
     29    H       26.9940    3.4640    6.2750 H       2  LIG2        0.0235
     30    H       26.5800    1.7980    5.9770 H       2  LIG2        0.0235
     31    H       25.8120    4.6270    3.6060 H       2  LIG2        0.0235
     32    H       27.2600    4.5510    2.6180 H       2  LIG2        0.0235
     33    H       27.3640    5.1380    4.2680 H       2  LIG2        0.0235
     34    H       31.4420    1.1680    7.1130 H       2  LIG2        0.0268
     35    H       29.7800    1.6310    7.4410 H       2  LIG2        0.0268
     36    H       29.2150    3.7260    6.2220 H       2  LIG2        0.0233
     37    H       30.1700    4.1760    4.8110 H       2  LIG2        0.0233
     38    H       30.9450    3.9650    6.3690 H       2  LIG2        0.0233
     39    H       30.3410   -1.2730    3.1230 H       2  LIG2        0.0257
     40    H       29.3110   -2.6940    3.0340 H       2  LIG2        0.0257
     41    H       30.2440   -2.3900    4.4790 H       2  LIG2        0.0257
     42    H       27.5160   -2.7470    4.6090 H       2  LIG2        0.2102
@<TRIPOS>BOND
     1    18     4    1
     2    27    11    1
     3    32    13    1
     4    22     7    1
     5    26    11    1
     6    17     2    1
     7    40    16    1
     8     4     7    1
     9     4     2    1
    10     4     3    1
    11    11     7    1
    12    11     9    1
    13    39    16    1
    14     7    21    1
    15    31    13    1
    16    13     3    1
    17    13    33    1
    18    19     5    1
    19     2     3    1
    20     2     5    1
    21    16     9    1
    22    16    41    1
    23     3    12    1
    24     9     1    1
    25     9     6    1
    26     5     6    1
    27     5     8    1
    28    42     1    1
    29    37    15    1
    30    23     8    1
    31     6    20    1
    32     6    10    1
    33     8    15    1
    34     8    14    1
    35    28    12    1
    36    12    30    1
    37    12    29    1
    38    15    36    1
    39    15    38    1
    40    25    10    1
    41    10    14    1
    42    10    24    1
    43    14    34    1
    44    14    35    1
@<TRIPOS>MOLECULE
11996452_10_run_23.pdb
 42 44 0 0 0
SMALL
GASTEIGER

@<TRIPOS>ATOM
      1    O       30.4730    2.3520    3.8400 O.3     2  LIG2       -0.3886
      2    C       26.2540    0.8640    4.7970 C.3     2  LIG2       -0.0289
      3    C       25.5290    1.3260    3.5430 C.3     2  LIG2       -0.0284
      4    C       26.1540    2.3670    4.4560 C.3     2  LIG2       -0.0319
      5    C       27.6170    0.1040    4.9190 C.3     2  LIG2       -0.0294
      6    C       28.8910    0.6180    4.1960 C.3     2  LIG2       -0.0090
      7    C       27.4060    3.1920    4.0770 C.3     2  LIG2       -0.0468
      8    C       27.5670   -1.4400    4.7050 C.3     2  LIG2       -0.0404
      9    C       29.5670    1.8840    4.8270 C.3     2  LIG2        0.0664
     10    C       29.7790   -0.6320    4.0710 C.3     2  LIG2       -0.0471
     11    C       28.5700    3.0500    5.0780 C.3     2  LIG2       -0.0237
     12    C       26.0390    1.1150    2.0970 C.3     2  LIG2       -0.0593
     13    C       23.9920    1.2100    3.5900 C.3     2  LIG2       -0.0593
     14    C       28.7990   -1.7800    3.8510 C.3     2  LIG2       -0.0498
     15    C       26.2690   -2.0150    4.1030 C.3     2  LIG2       -0.0621
     16    C       30.3900    1.6250    6.1110 C.3     2  LIG2       -0.0358
     17    H       25.6030    0.5250    5.6050 H       2  LIG2        0.0312
     18    H       25.4500    2.9760    5.0270 H       2  LIG2        0.0309
     19    H       27.8540    0.2140    5.9790 H       2  LIG2        0.0310
     20    H       28.6320    0.8600    3.1730 H       2  LIG2        0.0331
     21    H       27.7480    3.0160    3.0590 H       2  LIG2        0.0269
     22    H       27.1050    4.2410    4.0800 H       2  LIG2        0.0269
     23    H       27.6980   -1.9250    5.6760 H       2  LIG2        0.0301
     24    H       30.4900   -0.5500    3.2470 H       2  LIG2        0.0269
     25    H       30.3500   -0.8190    4.9790 H       2  LIG2        0.0269
     26    H       29.1140    3.9950    5.1280 H       2  LIG2        0.0293
     27    H       28.1320    2.9400    6.0720 H       2  LIG2        0.0293
     28    H       25.5530    1.8220    1.4240 H       2  LIG2        0.0235
     29    H       25.7960    0.1170    1.7340 H       2  LIG2        0.0235
     30    H       27.0990    1.2550    1.9410 H       2  LIG2        0.0235
     31    H       23.5220    1.9330    2.9220 H       2  LIG2        0.0235
     32    H       23.5940    1.3930    4.5900 H       2  LIG2        0.0235
     33    H       23.6660    0.2150    3.2910 H       2  LIG2        0.0235
     34    H       29.2400   -2.7360    4.1340 H       2  LIG2        0.0268
     35    H       28.5350   -1.8460    2.7930 H       2  LIG2        0.0268
     36    H       26.0750   -1.6280    3.1050 H       2  LIG2        0.0233
     37    H       25.4030   -1.7890    4.7260 H       2  LIG2        0.0233
     38    H       26.3280   -3.1010    4.0220 H       2  LIG2        0.0233
     39    H       29.7840    1.1610    6.8900 H       2  LIG2        0.0257
     40    H       30.7900    2.5540    6.5220 H       2  LIG2        0.0257
     41    H       31.2470    0.9750    5.9310 H       2  LIG2        0.0257
     42    H       31.1220    1.6640    3.6730 H       2  LIG2        0.2102
@<TRIPOS>BOND
     1    28    12    1
     2    29    12    1
     3    30    12    1
     4    12     3    1
     5    35    14    1
     6    31    13    1
     7    21     7    1
     8    36    15    1
     9    20     6    1
    10    24    10    1
    11    33    13    1
    12     3    13    1
    13     3     4    1
    14     3     2    1
    15    13    32    1
    16    42     1    1
    17     1     9    1
    18    14    10    1
    19    14    34    1
    20    14     8    1
    21    38    15    1
    22    10     6    1
    23    10    25    1
    24     7    22    1
    25     7     4    1
    26     7    11    1
    27    15     8    1
    28    15    37    1
    29     6     9    1
    30     6     5    1
    31     4     2    1
    32     4    18    1
    33     8     5    1
    34     8    23    1
    35     2     5    1
    36     2    17    1
    37     9    11    1
    38     9    16    1
    39     5    19    1
    40    11    26    1
    41    11    27    1
    42    41    16    1
    43    16    40    1
    44    16    39    1
