@<TRIPOS>MOLECULE
11996452_4_run_9.pdb
 42 44 0 0 0
SMALL
GASTEIGER

@<TRIPOS>ATOM
      1    O       25.7090    2.1170    2.3370 O.3     2  LIG2       -0.3886
      2    C       28.4460    0.7530    5.0240 C.3     2  LIG2       -0.0289
      3    C       29.0670   -0.5380    4.5260 C.3     2  LIG2       -0.0284
      4    C       27.5850   -0.5010    4.8300 C.3     2  LIG2       -0.0319
      5    C       28.1610    1.9750    4.1140 C.3     2  LIG2       -0.0294
      6    C       26.7900    2.6200    4.4670 C.3     2  LIG2       -0.0090
      7    C       26.4770   -0.4980    3.7520 C.3     2  LIG2       -0.0468
      8    C       29.2210    3.1150    4.1330 C.3     2  LIG2       -0.0404
      9    C       25.5470    1.9980    3.7420 C.3     2  LIG2        0.0664
     10    C       27.0110    4.1270    4.2380 C.3     2  LIG2       -0.0471
     11    C       25.3220    0.4860    4.0510 C.3     2  LIG2       -0.0237
     12    C       29.5890   -0.6710    3.0770 C.3     2  LIG2       -0.0593
     13    C       29.9660   -1.2930    5.5230 C.3     2  LIG2       -0.0593
     14    C       28.4720    4.3710    4.5990 C.3     2  LIG2       -0.0498
     15    C       30.5010    2.8480    4.9520 C.3     2  LIG2       -0.0621
     16    C       24.2470    2.7630    4.0860 C.3     2  LIG2       -0.0358
     17    H       28.6280    1.0480    6.0590 H       2  LIG2        0.0312
     18    H       27.2700   -1.0630    5.7110 H       2  LIG2        0.0309
     19    H       28.1110    1.6510    3.0770 H       2  LIG2        0.0310
     20    H       26.6220    2.5030    5.5400 H       2  LIG2        0.0331
     21    H       26.8620   -0.3160    2.7510 H       2  LIG2        0.0269
     22    H       26.0580   -1.5050    3.7150 H       2  LIG2        0.0269
     23    H       29.5410    3.2940    3.1050 H       2  LIG2        0.0301
     24    H       26.8280    4.3970    3.1970 H       2  LIG2        0.0269
     25    H       26.3480    4.7350    4.8560 H       2  LIG2        0.0269
     26    H       24.4370    0.1430    3.5110 H       2  LIG2        0.0293
     27    H       25.0590    0.3790    5.1050 H       2  LIG2        0.0293
     28    H       29.6300   -1.7200    2.7780 H       2  LIG2        0.0235
     29    H       30.5990   -0.2680    2.9950 H       2  LIG2        0.0235
     30    H       28.9890   -0.1590    2.3300 H       2  LIG2        0.0235
     31    H       30.0020   -2.3570    5.2920 H       2  LIG2        0.0235
     32    H       29.6120   -1.1950    6.5500 H       2  LIG2        0.0235
     33    H       30.9860   -0.9090    5.4960 H       2  LIG2        0.0235
     34    H       28.5750    4.5080    5.6770 H       2  LIG2        0.0268
     35    H       28.8530    5.2750    4.1200 H       2  LIG2        0.0268
     36    H       30.2870    2.7150    6.0130 H       2  LIG2        0.0233
     37    H       31.2000    3.6790    4.8640 H       2  LIG2        0.0233
     38    H       31.0150    1.9520    4.5990 H       2  LIG2        0.0233
     39    H       24.0490    2.7400    5.1590 H       2  LIG2        0.0257
     40    H       23.3780    2.3330    3.5850 H       2  LIG2        0.0257
     41    H       24.2960    3.8100    3.7860 H       2  LIG2        0.0257
     42    H       24.9910    1.6450    1.9080 H       2  LIG2        0.2102
@<TRIPOS>BOND
     1    42     1    1
     2    30    12    1
     3     1     9    1
     4    21     7    1
     5    28    12    1
     6    29    12    1
     7    12     3    1
     8    19     5    1
     9    23     8    1
    10    24    10    1
    11    26    11    1
    12    40    16    1
    13    22     7    1
    14     9    11    1
    15     9    16    1
    16     9     6    1
    17     7    11    1
    18     7     4    1
    19    41    16    1
    20    11    27    1
    21    16    39    1
    22     5     8    1
    23     5     6    1
    24     5     2    1
    25    35    14    1
    26     8    14    1
    27     8    15    1
    28    10     6    1
    29    10    14    1
    30    10    25    1
    31     6    20    1
    32     3     4    1
    33     3     2    1
    34     3    13    1
    35    14    34    1
    36    38    15    1
    37     4     2    1
    38     4    18    1
    39    37    15    1
    40    15    36    1
    41     2    17    1
    42    31    13    1
    43    33    13    1
    44    13    32    1
@<TRIPOS>MOLECULE
11996452_4_run_9.pdb
 42 44 0 0 0
SMALL
GASTEIGER

@<TRIPOS>ATOM
      1    O       26.8510   -1.0190    5.4070 O.3     2  LIG2       -0.3886
      2    C       27.3980    2.6940    3.8300 C.3     2  LIG2       -0.0289
      3    C       26.1230    3.5070    3.9580 C.3     2  LIG2       -0.0284
      4    C       26.1200    2.2580    3.1020 C.3     2  LIG2       -0.0319
      5    C       27.9430    1.7720    4.9500 C.3     2  LIG2       -0.0294
      6    C       28.4960    0.4460    4.3560 C.3     2  LIG2       -0.0090
      7    C       25.4350    0.9320    3.5050 C.3     2  LIG2       -0.0468
      8    C       29.0600    2.3690    5.8560 C.3     2  LIG2       -0.0404
      9    C       27.4400   -0.6950    4.1570 C.3     2  LIG2        0.0664
     10    C       29.6940    0.0970    5.2580 C.3     2  LIG2       -0.0471
     11    C       26.2780   -0.3240    3.1850 C.3     2  LIG2       -0.0237
     12    C       25.3430    3.5740    5.2910 C.3     2  LIG2       -0.0593
     13    C       26.0990    4.8590    3.2200 C.3     2  LIG2       -0.0593
     14    C       30.2720    1.4420    5.6860 C.3     2  LIG2       -0.0498
     15    C       29.4100    3.8540    5.6240 C.3     2  LIG2       -0.0621
     16    C       28.1010   -1.9990    3.6490 C.3     2  LIG2       -0.0358
     17    H       28.1960    3.0810    3.1950 H       2  LIG2        0.0312
     18    H       26.0460    2.4240    2.0260 H       2  LIG2        0.0309
     19    H       27.1350    1.5120    5.6310 H       2  LIG2        0.0310
     20    H       28.9180    0.6610    3.3710 H       2  LIG2        0.0331
     21    H       25.1330    0.9130    4.5500 H       2  LIG2        0.0269
     22    H       24.5040    0.8630    2.9410 H       2  LIG2        0.0269
     23    H       28.7340    2.2830    6.8940 H       2  LIG2        0.0301
     24    H       29.3750   -0.4720    6.1330 H       2  LIG2        0.0269
     25    H       30.4410   -0.5010    4.7340 H       2  LIG2        0.0269
     26    H       25.5990   -1.1760    3.1050 H       2  LIG2        0.0293
     27    H       26.6870   -0.2030    2.1800 H       2  LIG2        0.0293
     28    H       24.3030    3.8500    5.1130 H       2  LIG2        0.0235
     29    H       25.7750    4.3270    5.9500 H       2  LIG2        0.0235
     30    H       25.3260    2.6430    5.8520 H       2  LIG2        0.0235
     31    H       25.0790    5.1570    2.9800 H       2  LIG2        0.0235
     32    H       26.6570    4.8250    2.2830 H       2  LIG2        0.0235
     33    H       26.5440    5.6450    3.8310 H       2  LIG2        0.0235
     34    H       30.9480    1.8220    4.9170 H       2  LIG2        0.0268
     35    H       30.8490    1.3510    6.6070 H       2  LIG2        0.0268
     36    H       29.8070    4.0290    4.6240 H       2  LIG2        0.0233
     37    H       30.1640    4.1910    6.3360 H       2  LIG2        0.0233
     38    H       28.5330    4.4900    5.7540 H       2  LIG2        0.0233
     39    H       28.5990   -1.8400    2.6910 H       2  LIG2        0.0257
     40    H       27.3700   -2.7960    3.5070 H       2  LIG2        0.0257
     41    H       28.8480   -2.3780    4.3460 H       2  LIG2        0.0257
     42    H       26.3490   -1.8310    5.3050 H       2  LIG2        0.2102
@<TRIPOS>BOND
     1    18     4    1
     2    27    11    1
     3    32    13    1
     4    39    16    1
     5    22     7    1
     6    31    13    1
     7     4     7    1
     8     4     2    1
     9     4     3    1
    10    26    11    1
    11    11     7    1
    12    11     9    1
    13    17     2    1
    14    13    33    1
    15    13     3    1
    16    20     6    1
    17     7    21    1
    18    40    16    1
    19    16     9    1
    20    16    41    1
    21     2     3    1
    22     2     5    1
    23     3    12    1
    24     9     6    1
    25     9     1    1
    26     6     5    1
    27     6    10    1
    28    36    15    1
    29    25    10    1
    30    34    14    1
    31     5    19    1
    32     5     8    1
    33    28    12    1
    34    10    14    1
    35    10    24    1
    36    12    30    1
    37    12    29    1
    38    42     1    1
    39    15    38    1
    40    15     8    1
    41    15    37    1
    42    14     8    1
    43    14    35    1
    44     8    23    1
@<TRIPOS>MOLECULE
11996452_4_run_10.pdb
 42 44 0 0 0
SMALL
GASTEIGER

@<TRIPOS>ATOM
      1    O       26.9780    3.2090    5.8550 O.3     2  LIG2       -0.3886
      2    C       29.4350    0.1660    4.7230 C.3     2  LIG2       -0.0289
      3    C       30.2790   -0.2870    5.9000 C.3     2  LIG2       -0.0284
      4    C       30.4430    1.1220    5.3730 C.3     2  LIG2       -0.0319
      5    C       27.9290    0.5170    4.8330 C.3     2  LIG2       -0.0294
      6    C       27.5900    1.7710    3.9790 C.3     2  LIG2       -0.0090
      7    C       29.9270    2.3860    6.0980 C.3     2  LIG2       -0.0468
      8    C       26.9260   -0.6010    4.4240 C.3     2  LIG2       -0.0404
      9    C       27.7960    3.1500    4.6960 C.3     2  LIG2        0.0664
     10    C       26.1690    1.4980    3.4530 C.3     2  LIG2       -0.0471
     11    C       29.2620    3.4160    5.1560 C.3     2  LIG2       -0.0237
     12    C       29.6470   -0.5620    7.2840 C.3     2  LIG2       -0.0593
     13    C       31.4090   -1.2860    5.5850 C.3     2  LIG2       -0.0593
     14    C       26.0990   -0.0150    3.2710 C.3     2  LIG2       -0.0498
     15    C       27.5340   -1.9760    4.0790 C.3     2  LIG2       -0.0621
     16    C       27.3460    4.3290    3.8000 C.3     2  LIG2       -0.0358
     17    H       29.6990   -0.1970    3.7280 H       2  LIG2        0.0312
     18    H       31.3820    1.3260    4.8550 H       2  LIG2        0.0309
     19    H       27.6860    0.7520    5.8670 H       2  LIG2        0.0310
     20    H       28.2380    1.7730    3.0990 H       2  LIG2        0.0331
     21    H       29.2530    2.1560    6.9210 H       2  LIG2        0.0269
     22    H       30.7880    2.8670    6.5650 H       2  LIG2        0.0269
     23    H       26.2430   -0.7620    5.2600 H       2  LIG2        0.0301
     24    H       25.4140    1.8280    4.1690 H       2  LIG2        0.0269
     25    H       25.9750    2.0150    2.5110 H       2  LIG2        0.0269
     26    H       29.3100    4.3950    5.6360 H       2  LIG2        0.0293
     27    H       29.8940    3.5130    4.2710 H       2  LIG2        0.0293
     28    H       30.3990   -0.4900    8.0700 H       2  LIG2        0.0235
     29    H       29.2290   -1.5680    7.3210 H       2  LIG2        0.0235
     30    H       28.8450    0.1180    7.5580 H       2  LIG2        0.0235
     31    H       32.2090   -1.2190    6.3220 H       2  LIG2        0.0235
     32    H       31.8540   -1.1070    4.6050 H       2  LIG2        0.0235
     33    H       31.0350   -2.3100    5.5870 H       2  LIG2        0.0235
     34    H       26.5230   -0.2970    2.3050 H       2  LIG2        0.0268
     35    H       25.0670   -0.3680    3.2870 H       2  LIG2        0.0268
     36    H       28.1910   -1.9260    3.2100 H       2  LIG2        0.0233
     37    H       26.7530   -2.7020    3.8550 H       2  LIG2        0.0233
     38    H       28.1140   -2.3710    4.9160 H       2  LIG2        0.0233
     39    H       27.9140    4.3540    2.8690 H       2  LIG2        0.0257
     40    H       27.4890    5.2910    4.2940 H       2  LIG2        0.0257
     41    H       26.2900    4.2640    3.5370 H       2  LIG2        0.0257
     42    H       26.0600    3.1580    5.5810 H       2  LIG2        0.2102
@<TRIPOS>BOND
     1    34    14    1
     2    25    10    1
     3    39    16    1
     4    20     6    1
     5    36    15    1
     6    14    35    1
     7    14    10    1
     8    14     8    1
     9    10     6    1
    10    10    24    1
    11    41    16    1
    12    17     2    1
    13    16    40    1
    14    16     9    1
    15    37    15    1
    16     6     9    1
    17     6     5    1
    18    15     8    1
    19    15    38    1
    20    27    11    1
    21     8     5    1
    22     8    23    1
    23    32    13    1
    24     9    11    1
    25     9     1    1
    26     2     5    1
    27     2     4    1
    28     2     3    1
    29     5    19    1
    30    18     4    1
    31    11    26    1
    32    11     7    1
    33     4     3    1
    34     4     7    1
    35    42     1    1
    36    13    33    1
    37    13     3    1
    38    13    31    1
    39     3    12    1
    40     7    22    1
    41     7    21    1
    42    12    29    1
    43    12    30    1
    44    12    28    1
@<TRIPOS>MOLECULE
11996452_4_run_24.pdb
 42 44 0 0 0
SMALL
GASTEIGER

@<TRIPOS>ATOM
      1    O       28.8520   -0.8590    6.4970 O.3     2  LIG2       -0.3886
      2    C       27.3260    1.2920    3.3960 C.3     2  LIG2       -0.0289
      3    C       25.8490    0.9890    3.2280 C.3     2  LIG2       -0.0284
      4    C       26.8590   -0.1200    3.0230 C.3     2  LIG2       -0.0319
      5    C       28.0110    1.4880    4.7730 C.3     2  LIG2       -0.0294
      6    C       29.4070    0.8050    4.7990 C.3     2  LIG2       -0.0090
      7    C       27.0880   -1.2800    4.0180 C.3     2  LIG2       -0.0468
      8    C       28.2120    2.9590    5.2430 C.3     2  LIG2       -0.0404
      9    C       29.4070   -0.7110    5.1990 C.3     2  LIG2        0.0664
     10    C       30.2640    1.7280    5.6840 C.3     2  LIG2       -0.0471
     11    C       28.5800   -1.6220    4.2400 C.3     2  LIG2       -0.0237
     12    C       24.8870    0.9900    4.4380 C.3     2  LIG2       -0.0593
     13    C       25.1740    1.5610    1.9670 C.3     2  LIG2       -0.0593
     14    C       29.7260    3.1320    5.4280 C.3     2  LIG2       -0.0498
     15    C       27.5930    4.0550    4.3510 C.3     2  LIG2       -0.0621
     16    C       30.8450   -1.2760    5.2850 C.3     2  LIG2       -0.0358
     17    H       27.8330    1.8490    2.6050 H       2  LIG2        0.0312
     18    H       26.9840   -0.4590    1.9930 H       2  LIG2        0.0309
     19    H       27.4050    1.0240    5.5480 H       2  LIG2        0.0310
     20    H       29.8390    0.8670    3.7970 H       2  LIG2        0.0331
     21    H       26.6050   -1.1150    4.9790 H       2  LIG2        0.0269
     22    H       26.6000   -2.1640    3.6050 H       2  LIG2        0.0269
     23    H       27.7540    3.0630    6.2280 H       2  LIG2        0.0301
     24    H       30.1600    1.4700    6.7390 H       2  LIG2        0.0269
     25    H       31.3250    1.6640    5.4350 H       2  LIG2        0.0269
     26    H       28.6420   -2.6540    4.5920 H       2  LIG2        0.0293
     27    H       29.0670   -1.6350    3.2630 H       2  LIG2        0.0293
     28    H       23.9990    0.3930    4.2220 H       2  LIG2        0.0235
     29    H       24.5540    2.0030    4.6620 H       2  LIG2        0.0235
     30    H       25.3130    0.5930    5.3550 H       2  LIG2        0.0235
     31    H       24.3040    0.9680    1.6850 H       2  LIG2        0.0235
     32    H       25.8490    1.5750    1.1100 H       2  LIG2        0.0235
     33    H       24.8420    2.5860    2.1340 H       2  LIG2        0.0235
     34    H       30.1830    3.5510    4.5280 H       2  LIG2        0.0268
     35    H       29.9630    3.8040    6.2540 H       2  LIG2        0.0268
     36    H       28.0360    4.0690    3.3540 H       2  LIG2        0.0233
     37    H       27.7440    5.0430    4.7870 H       2  LIG2        0.0233
     38    H       26.5170    3.9100    4.2390 H       2  LIG2        0.0233
     39    H       31.3610   -1.1880    4.3280 H       2  LIG2        0.0257
     40    H       30.8500   -2.3310    5.5620 H       2  LIG2        0.0257
     41    H       31.4470   -0.7530    6.0290 H       2  LIG2        0.0257
     42    H       29.4800   -0.5160    7.1360 H       2  LIG2        0.2102
@<TRIPOS>BOND
     1    32    13    1
     2    31    13    1
     3    13    33    1
     4    13     3    1
     5    18     4    1
     6    17     2    1
     7     4     3    1
     8     4     2    1
     9     4     7    1
    10     3     2    1
    11     3    12    1
    12    27    11    1
    13    36    15    1
    14     2     5    1
    15    22     7    1
    16    20     6    1
    17     7    11    1
    18     7    21    1
    19    28    12    1
    20    38    15    1
    21    11    26    1
    22    11     9    1
    23    39    16    1
    24    15    37    1
    25    15     8    1
    26    12    29    1
    27    12    30    1
    28    34    14    1
    29     5     6    1
    30     5     8    1
    31     5    19    1
    32     6     9    1
    33     6    10    1
    34     9    16    1
    35     9     1    1
    36     8    14    1
    37     8    23    1
    38    16    40    1
    39    16    41    1
    40    14    10    1
    41    14    35    1
    42    25    10    1
    43    10    24    1
    44     1    42    1
@<TRIPOS>MOLECULE
11996452_4_run_23.pdb
 42 44 0 0 0
SMALL
GASTEIGER

@<TRIPOS>ATOM
      1    O       28.3490    2.5570    6.7950 O.3     2  LIG2       -0.3886
      2    C       28.3780   -0.0370    3.6570 C.3     2  LIG2       -0.0289
      3    C       28.6090   -1.4520    4.1530 C.3     2  LIG2       -0.0284
      4    C       29.6920   -0.4140    4.3530 C.3     2  LIG2       -0.0319
      5    C       27.4480    0.9800    4.3670 C.3     2  LIG2       -0.0294
      6    C       28.0830    2.3990    4.3730 C.3     2  LIG2       -0.0090
      7    C       30.0370    0.2290    5.7160 C.3     2  LIG2       -0.0468
      8    C       26.0100    1.1230    3.7890 C.3     2  LIG2       -0.0404
      9    C       29.0510    2.6990    5.5690 C.3     2  LIG2        0.0664
     10    C       26.8810    3.3520    4.2330 C.3     2  LIG2       -0.0471
     11    C       30.2890    1.7530    5.6380 C.3     2  LIG2       -0.0237
     12    C       27.8120   -2.0250    5.3470 C.3     2  LIG2       -0.0593
     13    C       28.8580   -2.5220    3.0730 C.3     2  LIG2       -0.0593
     14    C       25.8750    2.5940    3.3720 C.3     2  LIG2       -0.0498
     15    C       25.6240    0.1470    2.6580 C.3     2  LIG2       -0.0621
     16    C       29.5580    4.1610    5.5370 C.3     2  LIG2       -0.0358
     17    H       28.4470    0.1520    2.5850 H       2  LIG2        0.0312
     18    H       30.5890   -0.5440    3.7460 H       2  LIG2        0.0309
     19    H       27.3090    0.6800    5.4040 H       2  LIG2        0.0310
     20    H       28.6660    2.5190    3.4570 H       2  LIG2        0.0331
     21    H       29.2930    0.0210    6.4820 H       2  LIG2        0.0269
     22    H       30.9520   -0.2430    6.0750 H       2  LIG2        0.0269
     23    H       25.3020    0.9540    4.6020 H       2  LIG2        0.0301
     24    H       26.4460    3.5820    5.2070 H       2  LIG2        0.0269
     25    H       27.1610    4.2980    3.7670 H       2  LIG2        0.0269
     26    H       30.9050    2.0390    6.4930 H       2  LIG2        0.0293
     27    H       30.9220    1.9410    4.7680 H       2  LIG2        0.0293
     28    H       28.3490   -2.8570    5.8040 H       2  LIG2        0.0235
     29    H       26.8440   -2.4030    5.0150 H       2  LIG2        0.0235
     30    H       27.6100   -1.3120    6.1410 H       2  LIG2        0.0235
     31    H       29.4350   -3.3570    3.4730 H       2  LIG2        0.0235
     32    H       29.4110   -2.1240    2.2210 H       2  LIG2        0.0235
     33    H       27.9170   -2.9160    2.6910 H       2  LIG2        0.0235
     34    H       26.1150    2.7230    2.3140 H       2  LIG2        0.0268
     35    H       24.8620    2.9710    3.5220 H       2  LIG2        0.0268
     36    H       26.2440    0.2840    1.7710 H       2  LIG2        0.0233
     37    H       24.5870    0.2920    2.3560 H       2  LIG2        0.0233
     38    H       25.7260   -0.8910    2.9820 H       2  LIG2        0.0233
     39    H       30.1000    4.3700    4.6140 H       2  LIG2        0.0257
     40    H       30.2330    4.3740    6.3670 H       2  LIG2        0.0257
     41    H       28.7400    4.8790    5.6050 H       2  LIG2        0.0257
     42    H       28.9890    2.5390    7.5110 H       2  LIG2        0.2102
@<TRIPOS>BOND
     1    36    15    1
     2    32    13    1
     3    34    14    1
     4    37    15    1
     5    17     2    1
     6    15    38    1
     7    15     8    1
     8    33    13    1
     9    13    31    1
    10    13     3    1
    11    14    35    1
    12    14     8    1
    13    14    10    1
    14    20     6    1
    15     2     3    1
    16     2     4    1
    17     2     5    1
    18    18     4    1
    19    25    10    1
    20     8     5    1
    21     8    23    1
    22     3     4    1
    23     3    12    1
    24    10     6    1
    25    10    24    1
    26     4     7    1
    27     5     6    1
    28     5    19    1
    29     6     9    1
    30    39    16    1
    31    27    11    1
    32    29    12    1
    33    12    28    1
    34    12    30    1
    35    16     9    1
    36    16    41    1
    37    16    40    1
    38     9    11    1
    39     9     1    1
    40    11     7    1
    41    11    26    1
    42     7    22    1
    43     7    21    1
    44     1    42    1
@<TRIPOS>MOLECULE
11996452_4_run_2.pdb
 42 44 0 0 0
SMALL
GASTEIGER

@<TRIPOS>ATOM
      1    O       30.1390    2.1430    3.3550 O.3     2  LIG2       -0.3886
      2    C       26.4330    1.0020    4.5960 C.3     2  LIG2       -0.0289
      3    C       25.3760    1.5580    3.6600 C.3     2  LIG2       -0.0284
      4    C       26.2350    2.5170    4.4560 C.3     2  LIG2       -0.0319
      5    C       27.7770    0.4000    4.1120 C.3     2  LIG2       -0.0294
      6    C       28.9450    0.8380    5.0390 C.3     2  LIG2       -0.0090
      7    C       27.3690    3.3750    3.8490 C.3     2  LIG2       -0.0468
      8    C       27.8390   -1.1520    4.0000 C.3     2  LIG2       -0.0404
      9    C       29.6170    2.2080    4.6740 C.3     2  LIG2        0.0664
     10    C       29.8870   -0.3800    5.0640 C.3     2  LIG2       -0.0471
     11    C       28.6440    3.4260    4.7220 C.3     2  LIG2       -0.0237
     12    C       25.5170    1.4330    2.1250 C.3     2  LIG2       -0.0593
     13    C       23.9120    1.3940    4.1090 C.3     2  LIG2       -0.0593
     14    C       28.9670   -1.5910    4.9430 C.3     2  LIG2       -0.0498
     15    C       26.5200   -1.9120    4.2550 C.3     2  LIG2       -0.0621
     16    C       30.8230    2.5120    5.5930 C.3     2  LIG2       -0.0358
     17    H       26.1080    0.5670    5.5430 H       2  LIG2        0.0312
     18    H       25.7240    3.0560    5.2550 H       2  LIG2        0.0309
     19    H       27.9980    0.7660    3.1120 H       2  LIG2        0.0310
     20    H       28.5590    0.9370    6.0550 H       2  LIG2        0.0331
     21    H       27.6320    3.0730    2.8370 H       2  LIG2        0.0269
     22    H       26.9900    4.3930    3.7510 H       2  LIG2        0.0269
     23    H       28.1520   -1.4040    2.9850 H       2  LIG2        0.0301
     24    H       30.5880   -0.3530    4.2290 H       2  LIG2        0.0269
     25    H       30.4730   -0.4250    5.9830 H       2  LIG2        0.0269
     26    H       29.1980    4.3300    4.4610 H       2  LIG2        0.0293
     27    H       28.3330    3.5830    5.7570 H       2  LIG2        0.0293
     28    H       24.9160    2.1910    1.6220 H       2  LIG2        0.0235
     29    H       25.1650    0.4580    1.7860 H       2  LIG2        0.0235
     30    H       26.5310    1.5440    1.7530 H       2  LIG2        0.0235
     31    H       23.2770    2.1610    3.6660 H       2  LIG2        0.0235
     32    H       23.8040    1.4700    5.1920 H       2  LIG2        0.0235
     33    H       23.5200    0.4210    3.8130 H       2  LIG2        0.0235
     34    H       28.5720   -1.8620    5.9240 H       2  LIG2        0.0268
     35    H       29.5050   -2.4600    4.5590 H       2  LIG2        0.0268
     36    H       26.1580   -1.7690    5.2740 H       2  LIG2        0.0233
     37    H       26.6540   -2.9830    4.1050 H       2  LIG2        0.0233
     38    H       25.7370   -1.5830    3.5700 H       2  LIG2        0.0233
     39    H       30.5180    2.5630    6.6390 H       2  LIG2        0.0257
     40    H       31.2930    3.4640    5.3440 H       2  LIG2        0.0257
     41    H       31.5990    1.7490    5.5170 H       2  LIG2        0.0257
     42    H       30.8900    1.5450    3.3550 H       2  LIG2        0.2102
@<TRIPOS>BOND
     1    28    12    1
     2    30    12    1
     3    29    12    1
     4    12     3    1
     5    21     7    1
     6    23     8    1
     7    19     5    1
     8    42     1    1
     9     1     9    1
    10    38    15    1
    11     3    13    1
    12     3     4    1
    13     3     2    1
    14    31    13    1
    15    22     7    1
    16    33    13    1
    17     7     4    1
    18     7    11    1
    19     8     5    1
    20     8    15    1
    21     8    14    1
    22    37    15    1
    23    13    32    1
    24     5     2    1
    25     5     6    1
    26    24    10    1
    27    15    36    1
    28     4     2    1
    29     4    18    1
    30    26    11    1
    31    35    14    1
    32     2    17    1
    33     9    11    1
    34     9     6    1
    35     9    16    1
    36    11    27    1
    37    14    10    1
    38    14    34    1
    39     6    10    1
    40     6    20    1
    41    10    25    1
    42    40    16    1
    43    41    16    1
    44    16    39    1
@<TRIPOS>MOLECULE
11996452_4_run_19.pdb
 42 44 0 0 0
SMALL
GASTEIGER

@<TRIPOS>ATOM
      1    O       24.8980    1.7180    5.0500 O.3     2  LIG2       -0.3886
      2    C       28.8900    1.6790    4.2520 C.3     2  LIG2       -0.0289
      3    C       29.6150    2.6450    5.1710 C.3     2  LIG2       -0.0284
      4    C       28.5990    3.1830    4.1870 C.3     2  LIG2       -0.0319
      5    C       27.7490    0.7400    4.7220 C.3     2  LIG2       -0.0294
      6    C       26.6140    0.6760    3.6610 C.3     2  LIG2       -0.0090
      7    C       27.1960    3.7000    4.5810 C.3     2  LIG2       -0.0468
      8    C       28.1520   -0.7270    5.0520 C.3     2  LIG2       -0.0404
      9    C       25.5200    1.7930    3.7770 C.3     2  LIG2        0.0664
     10    C       26.0990   -0.7730    3.7460 C.3     2  LIG2       -0.0471
     11    C       26.0730    3.2430    3.6220 C.3     2  LIG2       -0.0237
     12    C       29.3470    2.6590    6.6940 C.3     2  LIG2       -0.0593
     13    C       31.1000    2.9040    4.8550 C.3     2  LIG2       -0.0593
     14    C       27.3250   -1.6070    4.1050 C.3     2  LIG2       -0.0498
     15    C       29.6590   -1.0530    5.0020 C.3     2  LIG2       -0.0621
     16    C       24.3900    1.5910    2.7400 C.3     2  LIG2       -0.0358
     17    H       29.4370    1.2640    3.4040 H       2  LIG2        0.0312
     18    H       29.0070    3.7610    3.3560 H       2  LIG2        0.0309
     19    H       27.3150    1.1290    5.6410 H       2  LIG2        0.0310
     20    H       27.0640    0.7750    2.6710 H       2  LIG2        0.0331
     21    H       26.9260    3.4490    5.6050 H       2  LIG2        0.0269
     22    H       27.2330    4.7900    4.5580 H       2  LIG2        0.0269
     23    H       27.8180   -0.9470    6.0680 H       2  LIG2        0.0301
     24    H       25.3340   -0.8750    4.5160 H       2  LIG2        0.0269
     25    H       25.6610   -1.1070    2.8030 H       2  LIG2        0.0269
     26    H       25.2440    3.9480    3.7100 H       2  LIG2        0.0293
     27    H       26.4360    3.3720    2.6000 H       2  LIG2        0.0293
     28    H       29.6280    3.6210    7.1240 H       2  LIG2        0.0235
     29    H       29.9390    1.8910    7.1940 H       2  LIG2        0.0235
     30    H       28.3120    2.4830    6.9730 H       2  LIG2        0.0235
     31    H       31.4160    3.8790    5.2270 H       2  LIG2        0.0235
     32    H       31.3000    2.8850    3.7830 H       2  LIG2        0.0235
     33    H       31.7340    2.1460    5.3150 H       2  LIG2        0.0235
     34    H       27.8920   -1.8490    3.2030 H       2  LIG2        0.0268
     35    H       27.0380   -2.5520    4.5700 H       2  LIG2        0.0268
     36    H       30.0730   -0.9200    4.0020 H       2  LIG2        0.0233
     37    H       29.8430   -2.0860    5.2960 H       2  LIG2        0.0233
     38    H       30.2220   -0.4160    5.6870 H       2  LIG2        0.0233
     39    H       24.7800    1.6160    1.7210 H       2  LIG2        0.0257
     40    H       23.6260    2.3660    2.8150 H       2  LIG2        0.0257
     41    H       23.8800    0.6350    2.8700 H       2  LIG2        0.0257
     42    H       25.5610    1.8930    5.7230 H       2  LIG2        0.2102
@<TRIPOS>BOND
     1    39    16    1
     2    27    11    1
     3    20     6    1
     4    16    40    1
     5    16    41    1
     6    16     9    1
     7    25    10    1
     8    34    14    1
     9    18     4    1
    10    17     2    1
    11    11    26    1
    12    11     9    1
    13    11     7    1
    14     6    10    1
    15     6     9    1
    16     6     5    1
    17    10    14    1
    18    10    24    1
    19     9     1    1
    20    32    13    1
    21    36    15    1
    22    14    35    1
    23    14     8    1
    24     4     2    1
    25     4     7    1
    26     4     3    1
    27     2     5    1
    28     2     3    1
    29    22     7    1
    30     7    21    1
    31     5     8    1
    32     5    19    1
    33    13     3    1
    34    13    31    1
    35    13    33    1
    36    15     8    1
    37    15    37    1
    38    15    38    1
    39     1    42    1
    40     8    23    1
    41     3    12    1
    42    12    30    1
    43    12    28    1
    44    12    29    1
@<TRIPOS>MOLECULE
11996452_4_run_1.pdb
 42 44 0 0 0
SMALL
GASTEIGER

@<TRIPOS>ATOM
      1    O       25.0190    4.4930    5.5030 O.3     2  LIG2       -0.3886
      2    C       27.7220    2.0740    3.6560 C.3     2  LIG2       -0.0289
      3    C       28.9600    1.9210    4.5200 C.3     2  LIG2       -0.0284
      4    C       28.5990    3.2890    3.9810 C.3     2  LIG2       -0.0319
      5    C       26.2770    2.0530    4.2170 C.3     2  LIG2       -0.0294
      6    C       25.3960    3.1260    3.5160 C.3     2  LIG2       -0.0090
      7    C       28.0170    4.4340    4.8410 C.3     2  LIG2       -0.0468
      8    C       25.5150    0.6990    4.1170 C.3     2  LIG2       -0.0404
      9    C       25.4470    4.5580    4.1520 C.3     2  LIG2        0.0664
     10    C       24.0010    2.4790    3.4400 C.3     2  LIG2       -0.0471
     11    C       26.8660    5.2040    4.1520 C.3     2  LIG2       -0.0237
     12    C       28.8530    1.5940    6.0270 C.3     2  LIG2       -0.0593
     13    C       30.1620    1.2090    3.8710 C.3     2  LIG2       -0.0593
     14    C       24.2660    0.9860    3.2730 C.3     2  LIG2       -0.0498
     15    C       26.3230   -0.5060    3.5930 C.3     2  LIG2       -0.0621
     16    C       24.4710    5.5290    3.4440 C.3     2  LIG2       -0.0358
     17    H       27.7650    1.7200    2.6250 H       2  LIG2        0.0312
     18    H       29.2610    3.6810    3.2070 H       2  LIG2        0.0309
     19    H       26.2970    2.2900    5.2780 H       2  LIG2        0.0310
     20    H       25.7350    3.2270    2.4830 H       2  LIG2        0.0331
     21    H       27.6950    4.1020    5.8250 H       2  LIG2        0.0269
     22    H       28.8250    5.1410    5.0320 H       2  LIG2        0.0269
     23    H       25.1710    0.4320    5.1190 H       2  LIG2        0.0301
     24    H       23.4320    2.6620    4.3520 H       2  LIG2        0.0269
     25    H       23.4150    2.8680    2.6050 H       2  LIG2        0.0269
     26    H       26.8030    6.1960    4.6050 H       2  LIG2        0.0293
     27    H       27.1650    5.3930    3.1180 H       2  LIG2        0.0293
     28    H       29.7580    1.9000    6.5520 H       2  LIG2        0.0235
     29    H       28.7330    0.5210    6.1780 H       2  LIG2        0.0235
     30    H       28.0210    2.0740    6.5360 H       2  LIG2        0.0235
     31    H       31.0990    1.5190    4.3330 H       2  LIG2        0.0235
     32    H       30.2400    1.4250    2.8040 H       2  LIG2        0.0235
     33    H       30.0770    0.1280    3.9750 H       2  LIG2        0.0235
     34    H       24.4450    0.7520    2.2210 H       2  LIG2        0.0268
     35    H       23.4090    0.3930    3.5950 H       2  LIG2        0.0268
     36    H       26.6610   -0.3560    2.5670 H       2  LIG2        0.0233
     37    H       25.7210   -1.4140    3.6070 H       2  LIG2        0.0233
     38    H       27.2030   -0.6900    4.2130 H       2  LIG2        0.0233
     39    H       24.7150    5.6290    2.3850 H       2  LIG2        0.0257
     40    H       24.5040    6.5270    3.8810 H       2  LIG2        0.0257
     41    H       23.4370    5.1900    3.5100 H       2  LIG2        0.0257
     42    H       24.1030    4.2050    5.5180 H       2  LIG2        0.2102
@<TRIPOS>BOND
     1    34    14    1
     2    39    16    1
     3    20     6    1
     4    36    15    1
     5    25    10    1
     6    17     2    1
     7    32    13    1
     8    27    11    1
     9    18     4    1
    10    14    10    1
    11    14    35    1
    12    14     8    1
    13    10     6    1
    14    10    24    1
    15    16    41    1
    16    16    40    1
    17    16     9    1
    18     6     9    1
    19     6     5    1
    20    15    37    1
    21    15     8    1
    22    15    38    1
    23     2     4    1
    24     2     5    1
    25     2     3    1
    26    13    33    1
    27    13    31    1
    28    13     3    1
    29     4     3    1
    30     4     7    1
    31     8     5    1
    32     8    23    1
    33    11     9    1
    34    11    26    1
    35    11     7    1
    36     9     1    1
    37     5    19    1
    38     3    12    1
    39     7    22    1
    40     7    21    1
    41     1    42    1
    42    12    29    1
    43    12    30    1
    44    12    28    1
@<TRIPOS>MOLECULE
11996452_4_run_19.pdb
 42 44 0 0 0
SMALL
GASTEIGER

@<TRIPOS>ATOM
      1    O       28.0580   -1.1510    2.7120 O.3     2  LIG2       -0.3886
      2    C       28.2150    1.8270    5.4840 C.3     2  LIG2       -0.0289
      3    C       29.6170    2.4030    5.5510 C.3     2  LIG2       -0.0284
      4    C       29.3950    0.9550    5.9320 C.3     2  LIG2       -0.0319
      5    C       27.5030    1.4550    4.1580 C.3     2  LIG2       -0.0294
      6    C       26.7170    0.1210    4.3070 C.3     2  LIG2       -0.0090
      7    C       29.8210   -0.2480    5.0590 C.3     2  LIG2       -0.0468
      8    C       26.5100    2.5100    3.5870 C.3     2  LIG2       -0.0404
      9    C       27.5460   -1.1820    4.0360 C.3     2  LIG2        0.0664
     10    C       25.4710    0.3150    3.4240 C.3     2  LIG2       -0.0471
     11    C       28.7620   -1.3730    4.9930 C.3     2  LIG2       -0.0237
     12    C       30.3880    2.7900    4.2680 C.3     2  LIG2       -0.0593
     13    C       29.8940    3.3930    6.6980 C.3     2  LIG2       -0.0593
     14    C       25.1490    1.8030    3.5170 C.3     2  LIG2       -0.0498
     15    C       26.4410    3.8600    4.3290 C.3     2  LIG2       -0.0621
     16    C       26.6590   -2.4470    4.1190 C.3     2  LIG2       -0.0358
     17    H       27.5050    2.1020    6.2660 H       2  LIG2        0.0312
     18    H       29.5040    0.7240    6.9930 H       2  LIG2        0.0309
     19    H       28.2450    1.3110    3.3760 H       2  LIG2        0.0310
     20    H       26.3480    0.0530    5.3330 H       2  LIG2        0.0331
     21    H       30.1080    0.0430    4.0510 H       2  LIG2        0.0269
     22    H       30.7260   -0.6650    5.5020 H       2  LIG2        0.0269
     23    H       26.8090    2.7320    2.5610 H       2  LIG2        0.0301
     24    H       25.6740    0.0370    2.3890 H       2  LIG2        0.0269
     25    H       24.6290   -0.2900    3.7670 H       2  LIG2        0.0269
     26    H       29.2720   -2.3030    4.7340 H       2  LIG2        0.0293
     27    H       28.3880   -1.5370    6.0060 H       2  LIG2        0.0293
     28    H       31.4620    2.8060    4.4570 H       2  LIG2        0.0235
     29    H       30.0990    3.7860    3.9330 H       2  LIG2        0.0235
     30    H       30.2310    2.1210    3.4260 H       2  LIG2        0.0235
     31    H       30.9540    3.4100    6.9540 H       2  LIG2        0.0235
     32    H       29.3450    3.1340    7.6050 H       2  LIG2        0.0235
     33    H       29.5990    4.4040    6.4200 H       2  LIG2        0.0235
     34    H       24.5590    2.0050    4.4140 H       2  LIG2        0.0268
     35    H       24.5590    2.1350    2.6610 H       2  LIG2        0.0268
     36    H       26.0890    3.7450    5.3550 H       2  LIG2        0.0233
     37    H       25.7590    4.5460    3.8270 H       2  LIG2        0.0233
     38    H       27.4200    4.3420    4.3620 H       2  LIG2        0.0233
     39    H       26.2040   -2.5450    5.1050 H       2  LIG2        0.0257
     40    H       27.2310   -3.3570    3.9320 H       2  LIG2        0.0257
     41    H       25.8500   -2.4290    3.3870 H       2  LIG2        0.0257
     42    H       27.3470   -1.3720    2.1070 H       2  LIG2        0.2102
@<TRIPOS>BOND
     1    42     1    1
     2    24    10    1
     3    23     8    1
     4    35    14    1
     5     1     9    1
     6    19     5    1
     7    41    16    1
     8    10    14    1
     9    10    25    1
    10    10     6    1
    11    30    12    1
    12    14     8    1
    13    14    34    1
    14     8     5    1
    15     8    15    1
    16    37    15    1
    17    40    16    1
    18    29    12    1
    19     9    16    1
    20     9     6    1
    21     9    11    1
    22    21     7    1
    23    16    39    1
    24     5     6    1
    25     5     2    1
    26    12    28    1
    27    12     3    1
    28     6    20    1
    29    15    38    1
    30    15    36    1
    31    26    11    1
    32    11     7    1
    33    11    27    1
    34     7    22    1
    35     7     4    1
    36     2     3    1
    37     2     4    1
    38     2    17    1
    39     3     4    1
    40     3    13    1
    41     4    18    1
    42    33    13    1
    43    13    31    1
    44    13    32    1
@<TRIPOS>MOLECULE
11996452_4_run_24.pdb
 42 44 0 0 0
SMALL
GASTEIGER

@<TRIPOS>ATOM
      1    O       27.1770    0.1360    5.2530 O.3     2  LIG2       -0.3886
      2    C       25.4080    3.3530    3.4930 C.3     2  LIG2       -0.0289
      3    C       24.0440    3.6000    4.1100 C.3     2  LIG2       -0.0284
      4    C       24.2940    2.3060    3.3640 C.3     2  LIG2       -0.0319
      5    C       26.6660    2.9740    4.3160 C.3     2  LIG2       -0.0294
      6    C       27.5010    1.8870    3.5820 C.3     2  LIG2       -0.0090
      7    C       24.4670    0.9300    4.0460 C.3     2  LIG2       -0.0468
      8    C       27.6390    4.1370    4.6690 C.3     2  LIG2       -0.0404
      9    C       27.0720    0.4050    3.8630 C.3     2  LIG2        0.0664
     10    C       28.9610    2.2350    3.9250 C.3     2  LIG2       -0.0471
     11    C       25.6070    0.0760    3.4430 C.3     2  LIG2       -0.0237
     12    C       23.8480    3.6210    5.6430 C.3     2  LIG2       -0.0593
     13    C       23.1590    4.6490    3.4110 C.3     2  LIG2       -0.0593
     14    C       28.9870    3.7550    4.0420 C.3     2  LIG2       -0.0498
     15    C       27.1810    5.5570    4.2750 C.3     2  LIG2       -0.0621
     16    C       28.0160   -0.6020    3.1640 C.3     2  LIG2       -0.0358
     17    H       25.6650    3.8870    2.5770 H       2  LIG2        0.0312
     18    H       23.7780    2.2050    2.4080 H       2  LIG2        0.0309
     19    H       26.3600    2.5590    5.2740 H       2  LIG2        0.0310
     20    H       27.4010    2.0450    2.5060 H       2  LIG2        0.0331
     21    H       24.6000    1.0060    5.1240 H       2  LIG2        0.0269
     22    H       23.5330    0.3830    3.9150 H       2  LIG2        0.0269
     23    H       27.7780    4.1430    5.7520 H       2  LIG2        0.0301
     24    H       29.2640    1.7780    4.8680 H       2  LIG2        0.0269
     25    H       29.6550    1.8900    3.1560 H       2  LIG2        0.0269
     26    H       25.4010   -0.9720    3.6700 H       2  LIG2        0.0293
     27    H       25.5310    0.1420    2.3560 H       2  LIG2        0.0293
     28    H       22.8070    3.4190    5.8990 H       2  LIG2        0.0235
     29    H       24.1010    4.6010    6.0480 H       2  LIG2        0.0235
     30    H       24.4480    2.8960    6.1860 H       2  LIG2        0.0235
     31    H       22.1020    4.4600    3.6010 H       2  LIG2        0.0235
     32    H       23.2990    4.6490    2.3290 H       2  LIG2        0.0235
     33    H       23.3900    5.6530    3.7660 H       2  LIG2        0.0235
     34    H       29.0990    4.2070    3.0540 H       2  LIG2        0.0268
     35    H       29.8290    4.0910    4.6490 H       2  LIG2        0.0268
     36    H       27.0730    5.6670    3.1960 H       2  LIG2        0.0233
     37    H       27.9020    6.3040    4.6070 H       2  LIG2        0.0233
     38    H       26.2230    5.8040    4.7360 H       2  LIG2        0.0233
     39    H       28.0140   -0.4580    2.0820 H       2  LIG2        0.0257
     40    H       27.7210   -1.6350    3.3550 H       2  LIG2        0.0257
     41    H       29.0470   -0.5020    3.5040 H       2  LIG2        0.0257
     42    H       26.8960   -0.7680    5.4100 H       2  LIG2        0.2102
@<TRIPOS>BOND
     1    39    16    1
     2    32    13    1
     3    27    11    1
     4    18     4    1
     5    20     6    1
     6    17     2    1
     7    34    14    1
     8    25    10    1
     9    16    40    1
    10    16    41    1
    11    16     9    1
    12    36    15    1
    13     4     2    1
    14     4     7    1
    15     4     3    1
    16    13    31    1
    17    13    33    1
    18    13     3    1
    19    11    26    1
    20    11     9    1
    21    11     7    1
    22     2     3    1
    23     2     5    1
    24     6     9    1
    25     6    10    1
    26     6     5    1
    27     9     1    1
    28    22     7    1
    29    10    14    1
    30    10    24    1
    31    14    35    1
    32    14     8    1
    33     7    21    1
    34     3    12    1
    35    15    37    1
    36    15     8    1
    37    15    38    1
    38     5     8    1
    39     5    19    1
    40     8    23    1
    41     1    42    1
    42    12    28    1
    43    12    29    1
    44    12    30    1
