@<TRIPOS>MOLECULE
11996452_9_run_18.pdb
 42 44 0 0 0
SMALL
GASTEIGER

@<TRIPOS>ATOM
      1    O       26.7760   -0.1240    2.3470 O.3     2  LIG2       -0.3886
      2    C       29.5920   -0.2560    3.3760 C.3     2  LIG2       -0.0289
      3    C       30.3850   -1.3830    4.0540 C.3     2  LIG2       -0.0284
      4    C       28.8760   -1.4800    3.9550 C.3     2  LIG2       -0.0319
      5    C       29.2170    1.1730    3.9010 C.3     2  LIG2       -0.0294
      6    C       27.7340    1.6260    3.6870 C.3     2  LIG2       -0.0090
      7    C       27.8870   -1.2340    5.1150 C.3     2  LIG2       -0.0468
      8    C       29.6610    1.6760    5.3060 C.3     2  LIG2       -0.0404
      9    C       26.5930    0.5420    3.5880 C.3     2  LIG2        0.0664
     10    C       27.5320    2.7370    4.7390 C.3     2  LIG2       -0.0471
     11    C       26.5630   -0.5530    4.7000 C.3     2  LIG2       -0.0237
     12    C       31.1990   -2.2760    3.0960 C.3     2  LIG2       -0.0593
     13    C       31.0570   -1.3120    5.4460 C.3     2  LIG2       -0.0593
     14    C       28.4400    2.3840    5.9100 C.3     2  LIG2       -0.0498
     15    C       30.9290    2.5520    5.2850 C.3     2  LIG2       -0.0621
     16    C       25.1820    1.1660    3.4520 C.3     2  LIG2       -0.0358
     17    H       29.6440   -0.2280    2.2860 H       2  LIG2        0.0312
     18    H       28.4890   -2.2310    3.2650 H       2  LIG2        0.0309
     19    H       29.7710    1.8120    3.2100 H       2  LIG2        0.0310
     20    H       27.7060    2.1440    2.7240 H       2  LIG2        0.0331
     21    H       27.6590   -2.1910    5.5880 H       2  LIG2        0.0269
     22    H       28.3280   -0.6400    5.9070 H       2  LIG2        0.0269
     23    H       29.8720    0.8620    5.9780 H       2  LIG2        0.0301
     24    H       27.8310    3.7010    4.3200 H       2  LIG2        0.0269
     25    H       26.5040    2.8540    5.0760 H       2  LIG2        0.0269
     26    H       25.8490   -1.3290    4.4160 H       2  LIG2        0.0293
     27    H       26.1440   -0.1100    5.6050 H       2  LIG2        0.0293
     28    H       31.3260   -3.2800    3.5030 H       2  LIG2        0.0235
     29    H       32.1890   -1.8570    2.9200 H       2  LIG2        0.0235
     30    H       30.7150   -2.3860    2.1230 H       2  LIG2        0.0235
     31    H       31.5120   -2.2710    5.7010 H       2  LIG2        0.0235
     32    H       30.3850   -1.1060    6.2730 H       2  LIG2        0.0235
     33    H       31.8560   -0.5710    5.4550 H       2  LIG2        0.0235
     34    H       27.9170    1.7170    6.5980 H       2  LIG2        0.0268
     35    H       28.7080    3.2750    6.4810 H       2  LIG2        0.0268
     36    H       30.7790    3.4580    4.6950 H       2  LIG2        0.0233
     37    H       31.7710    2.0100    4.8550 H       2  LIG2        0.0233
     38    H       31.2140    2.8570    6.2920 H       2  LIG2        0.0233
     39    H       24.8330    1.5970    4.3910 H       2  LIG2        0.0257
     40    H       24.4350    0.4250    3.1620 H       2  LIG2        0.0257
     41    H       25.1610    1.9560    2.7000 H       2  LIG2        0.0257
     42    H       26.1810   -0.8760    2.3140 H       2  LIG2        0.2102
@<TRIPOS>BOND
     1    30    12    1
     2    17     2    1
     3    42     1    1
     4     1     9    1
     5    41    16    1
     6    20     6    1
     7    29    12    1
     8    12    28    1
     9    12     3    1
    10    40    16    1
    11    19     5    1
    12    18     4    1
    13     2     5    1
    14     2     4    1
    15     2     3    1
    16    16     9    1
    17    16    39    1
    18     9     6    1
    19     9    11    1
    20     6     5    1
    21     6    10    1
    22     5     8    1
    23     4     3    1
    24     4     7    1
    25     3    13    1
    26    24    10    1
    27    26    11    1
    28    36    15    1
    29    11     7    1
    30    11    27    1
    31    10    25    1
    32    10    14    1
    33    37    15    1
    34     7    21    1
    35     7    22    1
    36    15     8    1
    37    15    38    1
    38     8    14    1
    39     8    23    1
    40    13    33    1
    41    13    31    1
    42    13    32    1
    43    14    35    1
    44    14    34    1
@<TRIPOS>MOLECULE
11996452_9_run_18.pdb
 42 44 0 0 0
SMALL
GASTEIGER

@<TRIPOS>ATOM
      1    O       31.1000    1.3790    4.8200 O.3     2  LIG2       -0.3886
      2    C       28.5370    2.6120    3.8600 C.3     2  LIG2       -0.0289
      3    C       27.6840    3.7650    4.4080 C.3     2  LIG2       -0.0284
      4    C       28.7420    3.1280    5.2870 C.3     2  LIG2       -0.0319
      5    C       28.1720    1.1050    3.6330 C.3     2  LIG2       -0.0294
      6    C       29.2170    0.0520    4.1320 C.3     2  LIG2       -0.0090
      7    C       28.4670    2.1390    6.4400 C.3     2  LIG2       -0.0468
      8    C       26.7560    0.5440    3.9540 C.3     2  LIG2       -0.0404
      9    C       30.1850    0.4170    5.3240 C.3     2  LIG2        0.0664
     10    C       28.3910   -1.2410    4.2930 C.3     2  LIG2       -0.0471
     11    C       29.5280    1.0260    6.6020 C.3     2  LIG2       -0.0237
     12    C       28.0160    5.1560    3.8270 C.3     2  LIG2       -0.0593
     13    C       26.1950    3.6800    4.8200 C.3     2  LIG2       -0.0593
     14    C       26.9790   -0.8020    4.6590 C.3     2  LIG2       -0.0498
     15    C       25.8280    0.4450    2.7270 C.3     2  LIG2       -0.0621
     16    C       31.1000   -0.7630    5.7360 C.3     2  LIG2       -0.0358
     17    H       29.3200    2.8950    3.1540 H       2  LIG2        0.0312
     18    H       29.6200    3.7390    5.4980 H       2  LIG2        0.0309
     19    H       28.2420    1.0230    2.5450 H       2  LIG2        0.0310
     20    H       29.8840   -0.1450    3.2880 H       2  LIG2        0.0331
     21    H       28.3980    2.7010    7.3730 H       2  LIG2        0.0269
     22    H       27.5000    1.6580    6.3420 H       2  LIG2        0.0269
     23    H       26.2340    1.1520    4.6740 H       2  LIG2        0.0301
     24    H       28.3730   -1.7880    3.3480 H       2  LIG2        0.0269
     25    H       28.7800   -1.9310    5.0390 H       2  LIG2        0.0269
     26    H       30.3150    1.3930    7.2650 H       2  LIG2        0.0293
     27    H       29.0510    0.2190    7.1600 H       2  LIG2        0.0293
     28    H       27.7750    5.9480    4.5370 H       2  LIG2        0.0235
     29    H       27.4510    5.3400    2.9140 H       2  LIG2        0.0235
     30    H       29.0740    5.2580    3.5800 H       2  LIG2        0.0235
     31    H       25.8530    4.6360    5.2190 H       2  LIG2        0.0235
     32    H       25.9730    2.9650    5.6050 H       2  LIG2        0.0235
     33    H       25.5670    3.4550    3.9580 H       2  LIG2        0.0235
     34    H       26.8960   -0.6810    5.7410 H       2  LIG2        0.0268
     35    H       26.2460   -1.5570    4.3700 H       2  LIG2        0.0268
     36    H       26.2340   -0.2300    1.9720 H       2  LIG2        0.0233
     37    H       25.6910    1.4220    2.2620 H       2  LIG2        0.0233
     38    H       24.8420    0.0740    3.0060 H       2  LIG2        0.0233
     39    H       30.5540   -1.5340    6.2800 H       2  LIG2        0.0257
     40    H       31.9070   -0.4390    6.3960 H       2  LIG2        0.0257
     41    H       31.5630   -1.2370    4.8700 H       2  LIG2        0.0257
     42    H       31.5990    0.9800    4.1050 H       2  LIG2        0.2102
@<TRIPOS>BOND
     1    36    15    1
     2    37    15    1
     3    19     5    1
     4    15    38    1
     5    15     8    1
     6    29    12    1
     7    17     2    1
     8    20     6    1
     9    24    10    1
    10    30    12    1
    11     5     2    1
    12     5     8    1
    13     5     6    1
    14    12     3    1
    15    12    28    1
    16     2     3    1
    17     2     4    1
    18     8    14    1
    19     8    23    1
    20    33    13    1
    21    42     1    1
    22     6    10    1
    23     6     9    1
    24    10    14    1
    25    10    25    1
    26    35    14    1
    27     3    13    1
    28     3     4    1
    29    14    34    1
    30     1     9    1
    31    13    31    1
    32    13    32    1
    33    41    16    1
    34     4    18    1
    35     4     7    1
    36     9    16    1
    37     9    11    1
    38    16    39    1
    39    16    40    1
    40    22     7    1
    41     7    11    1
    42     7    21    1
    43    11    27    1
    44    11    26    1
@<TRIPOS>MOLECULE
11996452_9_run_15.pdb
 42 44 0 0 0
SMALL
GASTEIGER

@<TRIPOS>ATOM
      1    O       25.3960   -0.0960    5.0050 O.3     2  LIG2       -0.3886
      2    C       26.1510    2.8080    5.0260 C.3     2  LIG2       -0.0289
      3    C       25.6740    3.9990    4.1820 C.3     2  LIG2       -0.0284
      4    C       25.3790    2.5850    3.7230 C.3     2  LIG2       -0.0319
      5    C       27.5830    2.1920    5.1860 C.3     2  LIG2       -0.0294
      6    C       27.6840    0.6330    5.0990 C.3     2  LIG2       -0.0090
      7    C       26.1150    1.8440    2.5860 C.3     2  LIG2       -0.0468
      8    C       28.8190    2.7820    4.4460 C.3     2  LIG2       -0.0404
      9    C       26.6100   -0.1750    4.2730 C.3     2  LIG2        0.0664
     10    C       29.1620    0.3780    4.7330 C.3     2  LIG2       -0.0471
     11    C       26.3110    0.3300    2.8260 C.3     2  LIG2       -0.0237
     12    C       24.4930    4.7910    4.7800 C.3     2  LIG2       -0.0593
     13    C       26.5690    4.9150    3.3130 C.3     2  LIG2       -0.0593
     14    C       29.6090    1.5790    3.9100 C.3     2  LIG2       -0.0498
     15    C       29.6690    3.7360    5.3080 C.3     2  LIG2       -0.0621
     16    C       26.9030   -1.6950    4.2300 C.3     2  LIG2       -0.0358
     17    H       25.5800    2.6130    5.9360 H       2  LIG2        0.0312
     18    H       24.3360    2.2700    3.7830 H       2  LIG2        0.0309
     19    H       27.7920    2.3930    6.2400 H       2  LIG2        0.0310
     20    H       27.5810    0.2590    6.1220 H       2  LIG2        0.0331
     21    H       25.5580    1.9860    1.6590 H       2  LIG2        0.0269
     22    H       27.0900    2.2730    2.3840 H       2  LIG2        0.0269
     23    H       28.5370    3.3420    3.5700 H       2  LIG2        0.0301
     24    H       29.7610    0.3120    5.6430 H       2  LIG2        0.0269
     25    H       29.3340   -0.5460    4.1840 H       2  LIG2        0.0269
     26    H       25.4360   -0.1980    2.4400 H       2  LIG2        0.0293
     27    H       27.1310    0.0150    2.1780 H       2  LIG2        0.0293
     28    H       23.8990    5.2650    3.9980 H       2  LIG2        0.0235
     29    H       24.8490    5.5720    5.4510 H       2  LIG2        0.0235
     30    H       23.8170    4.1550    5.3530 H       2  LIG2        0.0235
     31    H       25.9630    5.6510    2.7840 H       2  LIG2        0.0235
     32    H       27.1230    4.4090    2.5290 H       2  LIG2        0.0235
     33    H       27.2730    5.4710    3.9320 H       2  LIG2        0.0235
     34    H       29.3790    1.4140    2.8550 H       2  LIG2        0.0268
     35    H       30.6900    1.7190    3.9760 H       2  LIG2        0.0268
     36    H       30.0790    3.2280    6.1810 H       2  LIG2        0.0233
     37    H       29.0730    4.5780    5.6610 H       2  LIG2        0.0233
     38    H       30.5050    4.1430    4.7380 H       2  LIG2        0.0233
     39    H       27.7390   -1.9320    3.5710 H       2  LIG2        0.0257
     40    H       26.0500   -2.2630    3.8550 H       2  LIG2        0.0257
     41    H       27.1420   -2.0880    5.2200 H       2  LIG2        0.0257
     42    H       25.5960   -0.1970    5.9380 H       2  LIG2        0.2102
@<TRIPOS>BOND
     1    21     7    1
     2    27    11    1
     3    22     7    1
     4    26    11    1
     5    32    13    1
     6     7    11    1
     7     7     4    1
     8    31    13    1
     9    11     9    1
    10    34    14    1
    11    13    33    1
    12    13     3    1
    13    23     8    1
    14    39    16    1
    15     4    18    1
    16     4     3    1
    17     4     2    1
    18    40    16    1
    19    14    35    1
    20    14     8    1
    21    14    10    1
    22    28    12    1
    23     3    12    1
    24     3     2    1
    25    25    10    1
    26    16     9    1
    27    16    41    1
    28     9     1    1
    29     9     6    1
    30     8     5    1
    31     8    15    1
    32    10     6    1
    33    10    24    1
    34    38    15    1
    35    12    30    1
    36    12    29    1
    37     1    42    1
    38     2     5    1
    39     2    17    1
    40     6     5    1
    41     6    20    1
    42     5    19    1
    43    15    37    1
    44    15    36    1
@<TRIPOS>MOLECULE
11996452_9_run_2.pdb
 42 44 0 0 0
SMALL
GASTEIGER

@<TRIPOS>ATOM
      1    O       25.4060    3.9960    5.8550 O.3     2  LIG2       -0.3886
      2    C       27.7560    2.1710    5.4580 C.3     2  LIG2       -0.0289
      3    C       29.2290    2.4520    5.1300 C.3     2  LIG2       -0.0284
      4    C       28.1930    3.5400    4.9290 C.3     2  LIG2       -0.0319
      5    C       26.6830    1.3480    4.6660 C.3     2  LIG2       -0.0294
      6    C       25.2760    2.0140    4.5000 C.3     2  LIG2       -0.0090
      7    C       27.6190    3.9850    3.5670 C.3     2  LIG2       -0.0468
      8    C       27.0210    0.6330    3.3240 C.3     2  LIG2       -0.0404
      9    C       25.1490    3.5860    4.5200 C.3     2  LIG2        0.0664
     10    C       24.6670    1.2940    3.2790 C.3     2  LIG2       -0.0471
     11    C       26.1250    4.3820    3.5970 C.3     2  LIG2       -0.0237
     12    C       30.1550    2.5980    6.3550 C.3     2  LIG2       -0.0593
     13    C       30.0100    1.9050    3.9110 C.3     2  LIG2       -0.0593
     14    C       25.8380    0.9090    2.3850 C.3     2  LIG2       -0.0498
     15    C       27.3430   -0.8660    3.4770 C.3     2  LIG2       -0.0621
     16    C       23.7010    4.0750    4.2690 C.3     2  LIG2       -0.0358
     17    H       27.5020    2.1500    6.5200 H       2  LIG2        0.0312
     18    H       28.2380    4.3770    5.6270 H       2  LIG2        0.0309
     19    H       26.4850    0.5240    5.3550 H       2  LIG2        0.0310
     20    H       24.6750    1.6800    5.3510 H       2  LIG2        0.0331
     21    H       28.2020    4.8320    3.2020 H       2  LIG2        0.0269
     22    H       27.7410    3.2240    2.8050 H       2  LIG2        0.0269
     23    H       27.8730    1.0740    2.8350 H       2  LIG2        0.0301
     24    H       24.1420    0.3930    3.6060 H       2  LIG2        0.0269
     25    H       23.9420    1.8870    2.7250 H       2  LIG2        0.0269
     26    H       26.0540    5.4450    3.8380 H       2  LIG2        0.0293
     27    H       25.7620    4.3070    2.5700 H       2  LIG2        0.0293
     28    H       31.0060    3.2420    6.1330 H       2  LIG2        0.0235
     29    H       30.5410    1.6280    6.6680 H       2  LIG2        0.0235
     30    H       29.6390    3.0340    7.2130 H       2  LIG2        0.0235
     31    H       31.0260    2.3010    3.8980 H       2  LIG2        0.0235
     32    H       29.6030    2.1770    2.9420 H       2  LIG2        0.0235
     33    H       30.0940    0.8190    3.9590 H       2  LIG2        0.0235
     34    H       26.0750    1.7330    1.7080 H       2  LIG2        0.0268
     35    H       25.5870    0.0520    1.7580 H       2  LIG2        0.0268
     36    H       26.4950   -1.4180    3.8850 H       2  LIG2        0.0233
     37    H       28.1920   -1.0160    4.1460 H       2  LIG2        0.0233
     38    H       27.5990   -1.3150    2.5170 H       2  LIG2        0.0233
     39    H       23.4050    3.9610    3.2260 H       2  LIG2        0.0257
     40    H       23.5830    5.1340    4.5040 H       2  LIG2        0.0257
     41    H       22.9800    3.5280    4.8780 H       2  LIG2        0.0257
     42    H       24.8490    3.4810    6.4440 H       2  LIG2        0.2102
@<TRIPOS>BOND
     1    34    14    1
     2    35    14    1
     3    14    10    1
     4    14     8    1
     5    38    15    1
     6    27    11    1
     7    25    10    1
     8    22     7    1
     9    23     8    1
    10    32    13    1
    11    21     7    1
    12    39    16    1
    13    10    24    1
    14    10     6    1
    15     8    15    1
    16     8     5    1
    17    15    36    1
    18    15    37    1
    19     7    11    1
    20     7     4    1
    21    11    26    1
    22    11     9    1
    23    31    13    1
    24    13    33    1
    25    13     3    1
    26    16    40    1
    27    16     9    1
    28    16    41    1
    29     6     9    1
    30     6     5    1
    31     6    20    1
    32     9     1    1
    33     5    19    1
    34     5     2    1
    35     4     3    1
    36     4     2    1
    37     4    18    1
    38     3     2    1
    39     3    12    1
    40     2    17    1
    41     1    42    1
    42    28    12    1
    43    12    29    1
    44    12    30    1
@<TRIPOS>MOLECULE
11996452_9_run_12.pdb
 42 44 0 0 0
SMALL
GASTEIGER

@<TRIPOS>ATOM
      1    O       30.3780   -1.1790    3.6930 O.3     2  LIG2       -0.3886
      2    C       29.8260    1.7110    4.2860 C.3     2  LIG2       -0.0289
      3    C       30.1830    2.5990    5.4860 C.3     2  LIG2       -0.0284
      4    C       30.2840    1.0920    5.6090 C.3     2  LIG2       -0.0319
      5    C       28.4260    1.3200    3.6980 C.3     2  LIG2       -0.0294
      6    C       28.2130   -0.1920    3.3550 C.3     2  LIG2       -0.0090
      7    C       29.2770    0.1860    6.3500 C.3     2  LIG2       -0.0468
      8    C       27.0980    1.8500    4.3150 C.3     2  LIG2       -0.0404
      9    C       29.0320   -1.2930    4.1320 C.3     2  LIG2        0.0664
     10    C       26.6780   -0.3570    3.3500 C.3     2  LIG2       -0.0471
     11    C       29.0430   -1.1920    5.6900 C.3     2  LIG2       -0.0237
     12    C       31.5110    3.3720    5.3550 C.3     2  LIG2       -0.0593
     13    C       29.1800    3.3730    6.3760 C.3     2  LIG2       -0.0593
     14    C       26.1390    0.6520    4.3560 C.3     2  LIG2       -0.0498
     15    C       26.5150    3.0760    3.5850 C.3     2  LIG2       -0.0621
     16    C       28.6440   -2.7340    3.7190 C.3     2  LIG2       -0.0358
     17    H       30.5660    1.6780    3.4830 H       2  LIG2        0.0312
     18    H       31.2940    0.6840    5.6700 H       2  LIG2        0.0309
     19    H       28.4610    1.7930    2.7140 H       2  LIG2        0.0310
     20    H       28.5100   -0.3150    2.3090 H       2  LIG2        0.0331
     21    H       29.6290    0.0350    7.3710 H       2  LIG2        0.0269
     22    H       28.3100    0.6620    6.4650 H       2  LIG2        0.0269
     23    H       27.2200    2.1450    5.3440 H       2  LIG2        0.0301
     24    H       26.2860   -0.1310    2.3560 H       2  LIG2        0.0269
     25    H       26.3350   -1.3600    3.5950 H       2  LIG2        0.0269
     26    H       29.7810   -1.8940    6.0850 H       2  LIG2        0.0293
     27    H       28.0860   -1.5590    6.0630 H       2  LIG2        0.0293
     28    H       31.9510    3.5710    6.3330 H       2  LIG2        0.0235
     29    H       31.3570    4.3280    4.8550 H       2  LIG2        0.0235
     30    H       32.2550    2.8200    4.7770 H       2  LIG2        0.0235
     31    H       29.7020    3.8840    7.1850 H       2  LIG2        0.0235
     32    H       28.4400    2.7590    6.8790 H       2  LIG2        0.0235
     33    H       28.6610    4.1390    5.8000 H       2  LIG2        0.0235
     34    H       26.1270    0.2110    5.3550 H       2  LIG2        0.0268
     35    H       25.1090    0.9270    4.1220 H       2  LIG2        0.0268
     36    H       26.2710    2.8450    2.5470 H       2  LIG2        0.0233
     37    H       27.2240    3.9040    3.5850 H       2  LIG2        0.0233
     38    H       25.6030    3.4260    4.0690 H       2  LIG2        0.0233
     39    H       27.6730   -3.0270    4.1200 H       2  LIG2        0.0257
     40    H       29.3590   -3.4700    4.0900 H       2  LIG2        0.0257
     41    H       28.5990   -2.8450    2.6350 H       2  LIG2        0.0257
     42    H       30.3890   -1.2060    2.7340 H       2  LIG2        0.2102
@<TRIPOS>BOND
     1    20     6    1
     2    24    10    1
     3    36    15    1
     4    41    16    1
     5    19     5    1
     6    42     1    1
     7    10     6    1
     8    10    25    1
     9    10    14    1
    10     6     5    1
    11     6     9    1
    12    17     2    1
    13    15    37    1
    14    15    38    1
    15    15     8    1
    16     1     9    1
    17     5     2    1
    18     5     8    1
    19    16    40    1
    20    16    39    1
    21    16     9    1
    22    35    14    1
    23     9    11    1
    24     2     3    1
    25     2     4    1
    26     8    14    1
    27     8    23    1
    28    14    34    1
    29    30    12    1
    30    29    12    1
    31    12     3    1
    32    12    28    1
    33     3     4    1
    34     3    13    1
    35     4    18    1
    36     4     7    1
    37    11    27    1
    38    11    26    1
    39    11     7    1
    40    33    13    1
    41     7    22    1
    42     7    21    1
    43    13    32    1
    44    13    31    1
@<TRIPOS>MOLECULE
11996452_9_run_7.pdb
 42 44 0 0 0
SMALL
GASTEIGER

@<TRIPOS>ATOM
      1    O       28.5070    3.1190    5.9080 O.3     2  LIG2       -0.3886
      2    C       29.2160    0.2090    5.7140 C.3     2  LIG2       -0.0289
      3    C       30.4970   -0.5070    5.2660 C.3     2  LIG2       -0.0284
      4    C       30.2980    0.9580    4.9320 C.3     2  LIG2       -0.0319
      5    C       27.7610    0.1360    5.1350 C.3     2  LIG2       -0.0294
      6    C       27.0240    1.5010    4.9290 C.3     2  LIG2       -0.0090
      7    C       29.9090    1.5130    3.5450 C.3     2  LIG2       -0.0468
      8    C       27.4040   -0.7740    3.9230 C.3     2  LIG2       -0.0404
      9    C       27.8630    2.8130    4.6800 C.3     2  LIG2        0.0664
     10    C       25.9330    1.1790    3.8860 C.3     2  LIG2       -0.0471
     11    C       28.9710    2.7410    3.5820 C.3     2  LIG2       -0.0237
     12    C       31.4960   -0.8290    6.3970 C.3     2  LIG2       -0.0593
     13    C       30.6080   -1.5440    4.1220 C.3     2  LIG2       -0.0593
     14    C       26.4960    0.0650    3.0120 C.3     2  LIG2       -0.0498
     15    C       26.7870   -2.1300    4.3190 C.3     2  LIG2       -0.0621
     16    C       26.9750    4.0550    4.4240 C.3     2  LIG2       -0.0358
     17    H       29.1590    0.4610    6.7750 H       2  LIG2        0.0312
     18    H       30.9360    1.6610    5.4690 H       2  LIG2        0.0309
     19    H       27.2150   -0.3150    5.9670 H       2  LIG2        0.0310
     20    H       26.4760    1.6980    5.8550 H       2  LIG2        0.0331
     21    H       30.8210    1.7800    3.0080 H       2  LIG2        0.0269
     22    H       29.4400    0.7600    2.9220 H       2  LIG2        0.0269
     23    H       28.2670   -1.0030    3.3210 H       2  LIG2        0.0301
     24    H       25.0300    0.8290    4.3920 H       2  LIG2        0.0269
     25    H       25.6330    2.0280    3.2750 H       2  LIG2        0.0269
     26    H       29.5850    3.6430    3.6380 H       2  LIG2        0.0293
     27    H       28.4890    2.7950    2.6050 H       2  LIG2        0.0293
     28    H       32.5190   -0.8680    6.0220 H       2  LIG2        0.0235
     29    H       31.2680   -1.7910    6.8540 H       2  LIG2        0.0235
     30    H       31.4750   -0.0800    7.1910 H       2  LIG2        0.0235
     31    H       31.6440   -1.8570    3.9870 H       2  LIG2        0.0235
     32    H       30.3060   -1.1860    3.1430 H       2  LIG2        0.0235
     33    H       30.0340   -2.4410    4.3550 H       2  LIG2        0.0235
     34    H       27.0740    0.4930    2.1910 H       2  LIG2        0.0268
     35    H       25.6940   -0.5210    2.5590 H       2  LIG2        0.0268
     36    H       25.8490   -2.0000    4.8600 H       2  LIG2        0.0233
     37    H       27.4660   -2.6960    4.9580 H       2  LIG2        0.0233
     38    H       26.5800   -2.7410    3.4400 H       2  LIG2        0.0233
     39    H       26.5190    4.0360    3.4330 H       2  LIG2        0.0257
     40    H       27.5480    4.9820    4.4760 H       2  LIG2        0.0257
     41    H       26.1690    4.1330    5.1550 H       2  LIG2        0.0257
     42    H       29.0810    3.8760    5.7700 H       2  LIG2        0.2102
@<TRIPOS>BOND
     1    34    14    1
     2    35    14    1
     3    27    11    1
     4    22     7    1
     5    21     7    1
     6    14    10    1
     7    14     8    1
     8    32    13    1
     9    25    10    1
    10    23     8    1
    11    39    16    1
    12    38    15    1
    13     7    11    1
    14     7     4    1
    15    11    26    1
    16    11     9    1
    17    10    24    1
    18    10     6    1
    19     8    15    1
    20     8     5    1
    21    31    13    1
    22    13    33    1
    23    13     3    1
    24    15    36    1
    25    15    37    1
    26    16    40    1
    27    16     9    1
    28    16    41    1
    29     9     6    1
    30     9     1    1
    31     6     5    1
    32     6    20    1
    33     4     3    1
    34     4    18    1
    35     4     2    1
    36     5     2    1
    37     5    19    1
    38     3     2    1
    39     3    12    1
    40     2    17    1
    41    42     1    1
    42    28    12    1
    43    12    29    1
    44    12    30    1
@<TRIPOS>MOLECULE
11996452_9_run_19.pdb
 42 44 0 0 0
SMALL
GASTEIGER

@<TRIPOS>ATOM
      1    O       28.4970   -2.1200    5.0750 O.3     2  LIG2       -0.3886
      2    C       27.0770    0.5150    4.8550 C.3     2  LIG2       -0.0289
      3    C       26.1460    1.0930    3.7800 C.3     2  LIG2       -0.0284
      4    C       26.9950   -0.1230    3.4660 C.3     2  LIG2       -0.0319
      5    C       28.4590    1.0360    5.3810 C.3     2  LIG2       -0.0294
      6    C       29.5950   -0.0310    5.5280 C.3     2  LIG2       -0.0090
      7    C       28.2810   -0.1170    2.6100 C.3     2  LIG2       -0.0468
      8    C       29.1100    2.3390    4.8310 C.3     2  LIG2       -0.0404
      9    C       29.5780   -1.3200    4.6190 C.3     2  LIG2        0.0664
     10    C       30.8920    0.8050    5.5040 C.3     2  LIG2       -0.0471
     11    C       29.3760   -1.0990    3.0870 C.3     2  LIG2       -0.0237
     12    C       24.6420    0.8420    4.0150 C.3     2  LIG2       -0.0593
     13    C       26.3700    2.4060    2.9920 C.3     2  LIG2       -0.0593
     14    C       30.5990    2.0200    4.6330 C.3     2  LIG2       -0.0498
     15    C       28.8620    3.5810    5.7090 C.3     2  LIG2       -0.0621
     16    C       30.8120   -2.2290    4.8420 C.3     2  LIG2       -0.0358
     17    H       26.5900   -0.0530    5.6500 H       2  LIG2        0.0312
     18    H       26.4580   -1.0660    3.3570 H       2  LIG2        0.0309
     19    H       28.2200    1.2840    6.4180 H       2  LIG2        0.0310
     20    H       29.5280   -0.4140    6.5500 H       2  LIG2        0.0331
     21    H       28.0150   -0.3570    1.5800 H       2  LIG2        0.0269
     22    H       28.7270    0.8690    2.5530 H       2  LIG2        0.0269
     23    H       28.7460    2.5890    3.8500 H       2  LIG2        0.0301
     24    H       31.1410    1.1300    6.5160 H       2  LIG2        0.0269
     25    H       31.7630    0.2700    5.1300 H       2  LIG2        0.0269
     26    H       29.2050   -2.0660    2.6080 H       2  LIG2        0.0293
     27    H       30.3170   -0.7440    2.6660 H       2  LIG2        0.0293
     28    H       24.0940    0.8140    3.0730 H       2  LIG2        0.0235
     29    H       24.2090    1.6280    4.6330 H       2  LIG2        0.0235
     30    H       24.4560   -0.1070    4.5210 H       2  LIG2        0.0235
     31    H       25.5770    2.5510    2.2570 H       2  LIG2        0.0235
     32    H       27.2850    2.4460    2.4110 H       2  LIG2        0.0235
     33    H       26.3450    3.2680    3.6590 H       2  LIG2        0.0235
     34    H       30.7990    1.7840    3.5860 H       2  LIG2        0.0268
     35    H       31.2490    2.8570    4.8950 H       2  LIG2        0.0268
     36    H       29.2830    3.4550    6.7080 H       2  LIG2        0.0233
     37    H       27.7950    3.7750    5.8190 H       2  LIG2        0.0233
     38    H       29.3140    4.4710    5.2700 H       2  LIG2        0.0233
     39    H       31.7160   -1.8060    4.4030 H       2  LIG2        0.0257
     40    H       30.6820   -3.2100    4.3840 H       2  LIG2        0.0257
     41    H       31.0070   -2.3910    5.9040 H       2  LIG2        0.0257
     42    H       28.3980   -2.8660    4.4800 H       2  LIG2        0.2102
@<TRIPOS>BOND
     1    21     7    1
     2    31    13    1
     3    32    13    1
     4    22     7    1
     5    26    11    1
     6     7    11    1
     7     7     4    1
     8    27    11    1
     9    13    33    1
    10    13     3    1
    11    28    12    1
    12    11     9    1
    13    18     4    1
    14     4     3    1
    15     4     2    1
    16    34    14    1
    17     3    12    1
    18     3     2    1
    19    23     8    1
    20    12    30    1
    21    12    29    1
    22    40    16    1
    23    39    16    1
    24    42     1    1
    25     9    16    1
    26     9     1    1
    27     9     6    1
    28    14     8    1
    29    14    35    1
    30    14    10    1
    31     8     5    1
    32     8    15    1
    33    16    41    1
    34     2     5    1
    35     2    17    1
    36    25    10    1
    37    38    15    1
    38     5     6    1
    39     5    19    1
    40    10     6    1
    41    10    24    1
    42     6    20    1
    43    15    37    1
    44    15    36    1
@<TRIPOS>MOLECULE
11996452_9_run_23.pdb
 42 44 0 0 0
SMALL
GASTEIGER

@<TRIPOS>ATOM
      1    O       26.3420    0.0600    5.1000 O.3     2  LIG2       -0.3886
      2    C       28.9410   -1.0740    6.0850 C.3     2  LIG2       -0.0289
      3    C       30.0220   -0.5050    7.0160 C.3     2  LIG2       -0.0284
      4    C       28.9840    0.4210    6.4130 C.3     2  LIG2       -0.0319
      5    C       29.0350   -1.5360    4.5900 C.3     2  LIG2       -0.0294
      6    C       27.9010   -1.0360    3.6340 C.3     2  LIG2       -0.0090
      7    C       29.2290    1.3930    5.2390 C.3     2  LIG2       -0.0468
      8    C       30.3730   -1.4810    3.7950 C.3     2  LIG2       -0.0404
      9    C       27.1450    0.3100    3.9560 C.3     2  LIG2        0.0664
     10    C       28.5250   -1.1520    2.2280 C.3     2  LIG2       -0.0471
     11    C       28.0310    1.5550    4.2760 C.3     2  LIG2       -0.0237
     12    C       29.8500   -0.8570    8.5070 C.3     2  LIG2       -0.0593
     13    C       31.5160   -0.3110    6.6630 C.3     2  LIG2       -0.0593
     14    C       30.0210   -0.9270    2.4070 C.3     2  LIG2       -0.0498
     15    C       31.1270   -2.8240    3.7450 C.3     2  LIG2       -0.0621
     16    C       26.1080    0.6910    2.8700 C.3     2  LIG2       -0.0358
     17    H       28.1370   -1.6280    6.5740 H       2  LIG2        0.0312
     18    H       28.2430    0.8230    7.1050 H       2  LIG2        0.0309
     19    H       28.8300   -2.6050    4.6770 H       2  LIG2        0.0310
     20    H       27.1200   -1.8020    3.6570 H       2  LIG2        0.0331
     21    H       29.4920    2.3720    5.6450 H       2  LIG2        0.0269
     22    H       30.0900    1.1070    4.6460 H       2  LIG2        0.0269
     23    H       31.0620   -0.7670    4.2130 H       2  LIG2        0.0301
     24    H       28.3490   -2.1520    1.8270 H       2  LIG2        0.0269
     25    H       28.1200   -0.4530    1.4990 H       2  LIG2        0.0269
     26    H       27.3930    2.3590    4.6500 H       2  LIG2        0.0293
     27    H       28.4350    1.9380    3.3370 H       2  LIG2        0.0293
     28    H       30.2920   -0.0920    9.1470 H       2  LIG2        0.0235
     29    H       30.3290   -1.8070    8.7400 H       2  LIG2        0.0235
     30    H       28.8000   -0.9440    8.7930 H       2  LIG2        0.0235
     31    H       32.0480    0.1550    7.4930 H       2  LIG2        0.0235
     32    H       31.7110    0.3410    5.8180 H       2  LIG2        0.0235
     33    H       31.9990   -1.2710    6.4780 H       2  LIG2        0.0235
     34    H       30.2460    0.1410    2.3570 H       2  LIG2        0.0268
     35    H       30.5880   -1.4040    1.6050 H       2  LIG2        0.0268
     36    H       30.5360   -3.5960    3.2500 H       2  LIG2        0.0233
     37    H       31.3630   -3.1770    4.7490 H       2  LIG2        0.0233
     38    H       32.0680   -2.7280    3.2020 H       2  LIG2        0.0233
     39    H       26.5840    1.0550    1.9590 H       2  LIG2        0.0257
     40    H       25.4430    1.4890    3.2050 H       2  LIG2        0.0257
     41    H       25.4810   -0.1580    2.5960 H       2  LIG2        0.0257
     42    H       25.9410    0.8860    5.3770 H       2  LIG2        0.2102
@<TRIPOS>BOND
     1    25    10    1
     2    35    14    1
     3    24    10    1
     4    39    16    1
     5    10    14    1
     6    10     6    1
     7    34    14    1
     8    14     8    1
     9    41    16    1
    10    16    40    1
    11    16     9    1
    12    38    15    1
    13    36    15    1
    14    27    11    1
    15     6    20    1
    16     6     9    1
    17     6     5    1
    18    15     8    1
    19    15    37    1
    20     8    23    1
    21     8     5    1
    22     9    11    1
    23     9     1    1
    24    11    26    1
    25    11     7    1
    26     5    19    1
    27     5     2    1
    28    22     7    1
    29     1    42    1
    30     7    21    1
    31     7     4    1
    32    32    13    1
    33     2     4    1
    34     2    17    1
    35     2     3    1
    36     4     3    1
    37     4    18    1
    38    33    13    1
    39    13     3    1
    40    13    31    1
    41     3    12    1
    42    12    29    1
    43    12    30    1
    44    12    28    1
@<TRIPOS>MOLECULE
11996452_9_run_6.pdb
 42 44 0 0 0
SMALL
GASTEIGER

@<TRIPOS>ATOM
      1    O       28.7330    3.8420    4.0540 O.3     2  LIG2       -0.3886
      2    C       25.8500    3.7730    3.2230 C.3     2  LIG2       -0.0289
      3    C       24.5850    4.3710    3.8550 C.3     2  LIG2       -0.0284
      4    C       25.8570    4.2660    4.6720 C.3     2  LIG2       -0.0319
      5    C       26.2180    2.2800    2.9170 C.3     2  LIG2       -0.0294
      6    C       27.6550    1.8180    3.3320 C.3     2  LIG2       -0.0090
      7    C       26.1280    3.2170    5.7720 C.3     2  LIG2       -0.0468
      8    C       25.2410    1.1110    3.2370 C.3     2  LIG2       -0.0404
      9    C       28.3960    2.5430    4.5200 C.3     2  LIG2        0.0664
     10    C       27.5340    0.2830    3.4360 C.3     2  LIG2       -0.0471
     11    C       27.5910    2.7230    5.8460 C.3     2  LIG2       -0.0237
     12    C       24.2040    5.7770    3.3480 C.3     2  LIG2       -0.0593
     13    C       23.3270    3.5840    4.2940 C.3     2  LIG2       -0.0593
     14    C       26.0980   -0.0030    3.8570 C.3     2  LIG2       -0.0498
     15    C       24.4110    0.6400    2.0260 C.3     2  LIG2       -0.0621
     16    C       29.7720    1.9120    4.8440 C.3     2  LIG2       -0.0358
     17    H       26.3780    4.4170    2.5170 H       2  LIG2        0.0312
     18    H       26.3590    5.2080    4.8990 H       2  LIG2        0.0309
     19    H       26.2670    2.2860    1.8250 H       2  LIG2        0.0310
     20    H       28.2960    1.9900    2.4630 H       2  LIG2        0.0331
     21    H       25.8490    3.6430    6.7370 H       2  LIG2        0.0269
     22    H       25.4920    2.3450    5.6680 H       2  LIG2        0.0269
     23    H       24.5310    1.3750    4.0020 H       2  LIG2        0.0301
     24    H       27.7280   -0.1690    2.4610 H       2  LIG2        0.0269
     25    H       28.2330   -0.1750    4.1320 H       2  LIG2        0.0269
     26    H       28.1470    3.3880    6.5110 H       2  LIG2        0.0293
     27    H       27.5700    1.7650    6.3670 H       2  LIG2        0.0293
     28    H       23.6560    6.3360    4.1080 H       2  LIG2        0.0235
     29    H       23.5770    5.7140    2.4600 H       2  LIG2        0.0235
     30    H       25.0800    6.3730    3.0850 H       2  LIG2        0.0235
     31    H       22.5990    4.2520    4.7550 H       2  LIG2        0.0235
     32    H       23.5000    2.8160    5.0410 H       2  LIG2        0.0235
     33    H       22.8360    3.1260    3.4350 H       2  LIG2        0.0235
     34    H       26.0180    0.0210    4.9460 H       2  LIG2        0.0268
     35    H       25.7880   -1.0000    3.5410 H       2  LIG2        0.0268
     36    H       25.0490    0.2640    1.2250 H       2  LIG2        0.0233
     37    H       23.8130    1.4580    1.6220 H       2  LIG2        0.0233
     38    H       23.7250   -0.1600    2.3060 H       2  LIG2        0.0233
     39    H       29.6740    0.9540    5.3540 H       2  LIG2        0.0257
     40    H       30.3660    2.5480    5.5040 H       2  LIG2        0.0257
     41    H       30.3620    1.7450    3.9420 H       2  LIG2        0.0257
     42    H       29.4110    3.7560    3.3800 H       2  LIG2        0.2102
@<TRIPOS>BOND
     1    36    15    1
     2    37    15    1
     3    19     5    1
     4    15    38    1
     5    15     8    1
     6    29    12    1
     7    24    10    1
     8    20     6    1
     9    17     2    1
    10     5     2    1
    11     5     8    1
    12     5     6    1
    13    30    12    1
    14     2     3    1
    15     2     4    1
    16     8    14    1
    17     8    23    1
    18     6    10    1
    19     6     9    1
    20    12     3    1
    21    12    28    1
    22    42     1    1
    23    33    13    1
    24    10    14    1
    25    10    25    1
    26    35    14    1
    27     3    13    1
    28     3     4    1
    29    14    34    1
    30    41    16    1
    31     1     9    1
    32    13    31    1
    33    13    32    1
    34     9    16    1
    35     9    11    1
    36     4    18    1
    37     4     7    1
    38    16    39    1
    39    16    40    1
    40    22     7    1
    41     7    11    1
    42     7    21    1
    43    11    27    1
    44    11    26    1
@<TRIPOS>MOLECULE
11996452_9_run_19.pdb
 42 44 0 0 0
SMALL
GASTEIGER

@<TRIPOS>ATOM
      1    O       30.3220    1.6470    6.4750 O.3     2  LIG2       -0.3886
      2    C       28.8700   -0.4570    4.9030 C.3     2  LIG2       -0.0289
      3    C       29.3010   -1.3340    3.7190 C.3     2  LIG2       -0.0284
      4    C       30.1210   -0.1150    4.0900 C.3     2  LIG2       -0.0319
      5    C       27.7130    0.5950    5.0120 C.3     2  LIG2       -0.0294
      6    C       28.0770    1.9650    5.6770 C.3     2  LIG2       -0.0090
      7    C       30.1210    1.2270    3.3260 C.3     2  LIG2       -0.0468
      8    C       26.7590    0.8960    3.8180 C.3     2  LIG2       -0.0404
      9    C       29.5640    2.4900    5.6200 C.3     2  LIG2        0.0664
     10    C       26.9910    2.9290    5.1560 C.3     2  LIG2       -0.0471
     11    C       30.2610    2.4790    4.2230 C.3     2  LIG2       -0.0237
     12    C       29.8920   -2.7060    4.1050 C.3     2  LIG2       -0.0593
     13    C       28.6110   -1.4000    2.3360 C.3     2  LIG2       -0.0593
     14    C       26.5990    2.4220    3.7740 C.3     2  LIG2       -0.0498
     15    C       25.4170    0.1410    3.8850 C.3     2  LIG2       -0.0621
     16    C       29.7310    3.8900    6.2600 C.3     2  LIG2       -0.0358
     17    H       29.0660   -0.8680    5.8950 H       2  LIG2        0.0312
     18    H       31.0990   -0.3120    4.5320 H       2  LIG2        0.0309
     19    H       27.0610    0.1280    5.7540 H       2  LIG2        0.0310
     20    H       27.8660    1.8550    6.7440 H       2  LIG2        0.0331
     21    H       30.9380    1.2170    2.6030 H       2  LIG2        0.0269
     22    H       29.2280    1.3530    2.7250 H       2  LIG2        0.0269
     23    H       27.2020    0.6350    2.8720 H       2  LIG2        0.0301
     24    H       26.1230    2.9000    5.8180 H       2  LIG2        0.0269
     25    H       27.3030    3.9700    5.1050 H       2  LIG2        0.0269
     26    H       31.3240    2.6920    4.3550 H       2  LIG2        0.0293
     27    H       29.8800    3.3210    3.6440 H       2  LIG2        0.0293
     28    H       30.5940   -3.0610    3.3500 H       2  LIG2        0.0235
     29    H       29.1050   -3.4530    4.2080 H       2  LIG2        0.0235
     30    H       30.4320   -2.6720    5.0530 H       2  LIG2        0.0235
     31    H       29.1540   -2.0710    1.6690 H       2  LIG2        0.0235
     32    H       28.5680   -0.4600    1.7960 H       2  LIG2        0.0235
     33    H       27.5990   -1.7950    2.4260 H       2  LIG2        0.0235
     34    H       27.2610    2.8510    3.0190 H       2  LIG2        0.0268
     35    H       25.5850    2.7330    3.5150 H       2  LIG2        0.0268
     36    H       24.8490    0.4140    4.7750 H       2  LIG2        0.0233
     37    H       25.5760   -0.9370    3.9070 H       2  LIG2        0.0233
     38    H       24.7970    0.3630    3.0160 H       2  LIG2        0.0233
     39    H       29.3200    4.6800    5.6300 H       2  LIG2        0.0257
     40    H       30.7810    4.1430    6.4150 H       2  LIG2        0.0257
     41    H       29.2370    3.9520    7.2300 H       2  LIG2        0.0257
     42    H       29.8500    1.5520    7.3050 H       2  LIG2        0.2102
@<TRIPOS>BOND
     1    31    13    1
     2    32    13    1
     3    13    33    1
     4    13     3    1
     5    21     7    1
     6    22     7    1
     7    23     8    1
     8    38    15    1
     9    34    14    1
    10     7     4    1
    11     7    11    1
    12    28    12    1
    13    35    14    1
    14    27    11    1
    15     3     4    1
    16     3    12    1
    17     3     2    1
    18    14     8    1
    19    14    10    1
    20     8    15    1
    21     8     5    1
    22    15    37    1
    23    15    36    1
    24     4    18    1
    25     4     2    1
    26    12    29    1
    27    12    30    1
    28    11    26    1
    29    11     9    1
    30     2     5    1
    31     2    17    1
    32     5     6    1
    33     5    19    1
    34    25    10    1
    35    10     6    1
    36    10    24    1
    37     9     6    1
    38     9    16    1
    39     9     1    1
    40    39    16    1
    41     6    20    1
    42    16    40    1
    43    16    41    1
    44     1    42    1
