@<TRIPOS>MOLECULE
11996452_3_run_21.pdb
 42 44 0 0 0
SMALL
GASTEIGER

@<TRIPOS>ATOM
      1    O       26.4420    4.3620    3.1050 O.3     2  LIG2       -0.3886
      2    C       28.4750    0.3120    3.6840 C.3     2  LIG2       -0.0289
      3    C       27.8640   -1.0480    3.9820 C.3     2  LIG2       -0.0284
      4    C       27.1810   -0.1300    2.9900 C.3     2  LIG2       -0.0319
      5    C       28.4360    1.5030    4.6760 C.3     2  LIG2       -0.0294
      6    C       28.0790    2.8500    3.9980 C.3     2  LIG2       -0.0090
      7    C       25.8610    0.6170    3.2760 C.3     2  LIG2       -0.0468
      8    C       29.7940    1.7190    5.3950 C.3     2  LIG2       -0.0404
      9    C       26.5490    3.1160    3.7750 C.3     2  LIG2        0.0664
     10    C       28.8120    3.9000    4.8550 C.3     2  LIG2       -0.0471
     11    C       25.8720    2.0910    2.8190 C.3     2  LIG2       -0.0237
     12    C       28.5990   -2.2710    3.4020 C.3     2  LIG2       -0.0593
     13    C       27.2280   -1.3650    5.3540 C.3     2  LIG2       -0.0593
     14    C       30.0990    3.2250    5.3220 C.3     2  LIG2       -0.0498
     15    C       29.8360    1.1460    6.8230 C.3     2  LIG2       -0.0621
     16    C       25.7120    3.2740    5.0710 C.3     2  LIG2       -0.0358
     17    H       29.3610    0.3470    3.0490 H       2  LIG2        0.0312
     18    H       27.2300   -0.4460    1.9460 H       2  LIG2        0.0309
     19    H       27.6880    1.3340    5.4450 H       2  LIG2        0.0310
     20    H       28.5600    2.8640    3.0160 H       2  LIG2        0.0331
     21    H       25.0740    0.1020    2.7230 H       2  LIG2        0.0269
     22    H       25.5590    0.5500    4.3180 H       2  LIG2        0.0269
     23    H       30.5830    1.2180    4.8300 H       2  LIG2        0.0301
     24    H       29.0250    4.8090    4.2920 H       2  LIG2        0.0269
     25    H       28.2250    4.1910    5.7260 H       2  LIG2        0.0269
     26    H       26.3490    2.1320    1.8380 H       2  LIG2        0.0293
     27    H       24.8360    2.3930    2.6480 H       2  LIG2        0.0293
     28    H       27.9140   -3.1070    3.2610 H       2  LIG2        0.0235
     29    H       29.3970   -2.5990    4.0680 H       2  LIG2        0.0235
     30    H       29.0530   -2.0570    2.4340 H       2  LIG2        0.0235
     31    H       26.5060   -2.1780    5.2620 H       2  LIG2        0.0235
     32    H       26.7010   -0.5310    5.8120 H       2  LIG2        0.0235
     33    H       27.9900   -1.6830    6.0660 H       2  LIG2        0.0235
     34    H       30.4330    3.6350    6.2760 H       2  LIG2        0.0268
     35    H       30.8980    3.4090    4.6020 H       2  LIG2        0.0268
     36    H       29.0890    1.6180    7.4630 H       2  LIG2        0.0233
     37    H       30.8130    1.3050    7.2820 H       2  LIG2        0.0233
     38    H       29.6440    0.0730    6.8220 H       2  LIG2        0.0233
     39    H       25.7620    2.3930    5.7100 H       2  LIG2        0.0257
     40    H       24.6570    3.4390    4.8450 H       2  LIG2        0.0257
     41    H       26.0300    4.1240    5.6730 H       2  LIG2        0.0257
     42    H       26.7720    5.0490    3.6880 H       2  LIG2        0.2102
@<TRIPOS>BOND
     1    26    11    1
     2    18     4    1
     3    30    12    1
     4    27    11    1
     5    21     7    1
     6    11     7    1
     7    11     9    1
     8     4     7    1
     9     4     2    1
    10     4     3    1
    11    20     6    1
    12    17     2    1
    13     1    42    1
    14     1     9    1
    15    28    12    1
    16     7    22    1
    17    12     3    1
    18    12    29    1
    19     2     3    1
    20     2     5    1
    21     9     6    1
    22     9    16    1
    23     3    13    1
    24     6     5    1
    25     6    10    1
    26    24    10    1
    27    35    14    1
    28     5     8    1
    29     5    19    1
    30    23     8    1
    31    40    16    1
    32    10    14    1
    33    10    25    1
    34    16    41    1
    35    16    39    1
    36    31    13    1
    37    14     8    1
    38    14    34    1
    39    13    32    1
    40    13    33    1
    41     8    15    1
    42    38    15    1
    43    15    37    1
    44    15    36    1
@<TRIPOS>MOLECULE
11996452_3_run_22.pdb
 42 44 0 0 0
SMALL
GASTEIGER

@<TRIPOS>ATOM
      1    O       28.8490    3.8200    6.4420 O.3     2  LIG2       -0.3886
      2    C       27.5970   -0.2560    4.8010 C.3     2  LIG2       -0.0289
      3    C       28.4130   -1.2890    4.0430 C.3     2  LIG2       -0.0284
      4    C       29.0450   -0.5590    5.2100 C.3     2  LIG2       -0.0319
      5    C       27.2470    1.1430    4.2330 C.3     2  LIG2       -0.0294
      6    C       27.4280    2.2850    5.2650 C.3     2  LIG2       -0.0090
      7    C       30.1300    0.5280    5.0590 C.3     2  LIG2       -0.0468
      8    C       25.7790    1.2280    3.7360 C.3     2  LIG2       -0.0404
      9    C       28.8910    2.8290    5.4290 C.3     2  LIG2        0.0664
     10    C       26.3780    3.3320    4.8450 C.3     2  LIG2       -0.0471
     11    C       29.8960    1.7640    5.9540 C.3     2  LIG2       -0.0237
     12    C       28.0340   -2.7640    4.2710 C.3     2  LIG2       -0.0593
     13    C       28.8830   -1.0410    2.5910 C.3     2  LIG2       -0.0593
     14    C       25.1960    2.5340    4.3020 C.3     2  LIG2       -0.0498
     15    C       25.6330    1.0950    2.2090 C.3     2  LIG2       -0.0621
     16    C       29.4710    3.5440    4.1800 C.3     2  LIG2       -0.0358
     17    H       26.8300   -0.6140    5.4890 H       2  LIG2        0.0312
     18    H       29.2190   -1.1620    6.1020 H       2  LIG2        0.0309
     19    H       27.8870    1.3820    3.3890 H       2  LIG2        0.0310
     20    H       27.1100    1.9040    6.2390 H       2  LIG2        0.0331
     21    H       31.0780    0.0780    5.3550 H       2  LIG2        0.0269
     22    H       30.2760    0.8350    4.0270 H       2  LIG2        0.0269
     23    H       25.2010    0.4160    4.1810 H       2  LIG2        0.0301
     24    H       26.0780    3.9650    5.6800 H       2  LIG2        0.0269
     25    H       26.7550    3.9900    4.0620 H       2  LIG2        0.0269
     26    H       29.5760    1.4090    6.9360 H       2  LIG2        0.0293
     27    H       30.8650    2.2410    6.1220 H       2  LIG2        0.0293
     28    H       28.8850   -3.4190    4.0850 H       2  LIG2        0.0235
     29    H       27.2250   -3.0670    3.6060 H       2  LIG2        0.0235
     30    H       27.7010   -2.9500    5.2920 H       2  LIG2        0.0235
     31    H       29.7570   -1.6520    2.3620 H       2  LIG2        0.0235
     32    H       29.1560   -0.0120    2.3730 H       2  LIG2        0.0235
     33    H       28.0990   -1.3130    1.8830 H       2  LIG2        0.0235
     34    H       24.6440    3.1100    3.5560 H       2  LIG2        0.0268
     35    H       24.4960    2.3120    5.1080 H       2  LIG2        0.0268
     36    H       26.1650    1.8920    1.6870 H       2  LIG2        0.0233
     37    H       24.5860    1.1430    1.9080 H       2  LIG2        0.0233
     38    H       26.0330    0.1430    1.8590 H       2  LIG2        0.0233
     39    H       29.5000    2.8970    3.3050 H       2  LIG2        0.0257
     40    H       30.4930    3.8820    4.3550 H       2  LIG2        0.0257
     41    H       28.9010    4.4300    3.9040 H       2  LIG2        0.0257
     42    H       28.4900    4.6270    6.0640 H       2  LIG2        0.2102
@<TRIPOS>BOND
     1    36    15    1
     2    38    15    1
     3    33    13    1
     4    37    15    1
     5    15     8    1
     6    31    13    1
     7    32    13    1
     8    13     3    1
     9    39    16    1
    10    19     5    1
    11    34    14    1
    12    29    12    1
    13     8    23    1
    14     8     5    1
    15     8    14    1
    16    41    16    1
    17    22     7    1
    18     3    12    1
    19     3     2    1
    20     3     4    1
    21    25    10    1
    22    28    12    1
    23    16    40    1
    24    16     9    1
    25     5     2    1
    26     5     6    1
    27    12    30    1
    28    14    10    1
    29    14    35    1
    30     2     4    1
    31     2    17    1
    32    10     6    1
    33    10    24    1
    34     7     4    1
    35     7    21    1
    36     7    11    1
    37     4    18    1
    38     6     9    1
    39     6    20    1
    40     9    11    1
    41     9     1    1
    42    11    27    1
    43    11    26    1
    44    42     1    1
@<TRIPOS>MOLECULE
11996452_3_run_14.pdb
 42 44 0 0 0
SMALL
GASTEIGER

@<TRIPOS>ATOM
      1    O       29.8740   -1.1160    5.2430 O.3     2  LIG2       -0.3886
      2    C       26.3760    1.7960    4.8420 C.3     2  LIG2       -0.0289
      3    C       25.2120    1.7870    3.8650 C.3     2  LIG2       -0.0284
      4    C       25.6790    0.4800    4.4710 C.3     2  LIG2       -0.0319
      5    C       27.8490    2.0200    4.4170 C.3     2  LIG2       -0.0294
      6    C       28.8390    1.0460    5.1040 C.3     2  LIG2       -0.0090
      7    C       26.4500   -0.6040    3.6890 C.3     2  LIG2       -0.0468
      8    C       28.3470    3.4540    4.7420 C.3     2  LIG2       -0.0404
      9    C       28.9700   -0.3710    4.4430 C.3     2  LIG2        0.0664
     10    C       30.1480    1.8530    5.1960 C.3     2  LIG2       -0.0471
     11    C       27.6480   -1.1930    4.4660 C.3     2  LIG2       -0.0237
     12    C       23.8770    2.3540    4.3830 C.3     2  LIG2       -0.0593
     13    C       25.4160    2.0950    2.3630 C.3     2  LIG2       -0.0593
     14    C       29.7230    3.3030    5.4120 C.3     2  LIG2       -0.0498
     15    C       28.3490    4.3990    3.5270 C.3     2  LIG2       -0.0621
     16    C       29.5810   -0.3790    3.0170 C.3     2  LIG2       -0.0358
     17    H       26.1900    2.1560    5.8550 H       2  LIG2        0.0312
     18    H       24.9980    0.0280    5.1940 H       2  LIG2        0.0309
     19    H       27.9630    1.8750    3.3460 H       2  LIG2        0.0310
     20    H       28.4960    0.8970    6.1320 H       2  LIG2        0.0331
     21    H       25.7500   -1.4170    3.4920 H       2  LIG2        0.0269
     22    H       26.7710   -0.2660    2.7070 H       2  LIG2        0.0269
     23    H       27.6890    3.9010    5.4900 H       2  LIG2        0.0301
     24    H       30.7860    1.5040    6.0080 H       2  LIG2        0.0269
     25    H       30.7300    1.7850    4.2780 H       2  LIG2        0.0269
     26    H       27.3310   -1.3510    5.4980 H       2  LIG2        0.0293
     27    H       27.8430   -2.1920    4.0670 H       2  LIG2        0.0293
     28    H       23.0340    1.9230    3.8420 H       2  LIG2        0.0235
     29    H       23.8380    3.4370    4.2600 H       2  LIG2        0.0235
     30    H       23.7240    2.1430    5.4420 H       2  LIG2        0.0235
     31    H       24.6120    1.6560    1.7710 H       2  LIG2        0.0235
     32    H       26.3490    1.7220    1.9480 H       2  LIG2        0.0235
     33    H       25.4020    3.1710    2.1870 H       2  LIG2        0.0235
     34    H       30.4670    3.9940    5.0110 H       2  LIG2        0.0268
     35    H       29.6430    3.5120    6.4800 H       2  LIG2        0.0268
     36    H       29.0090    4.0340    2.7390 H       2  LIG2        0.0233
     37    H       28.6880    5.3980    3.8060 H       2  LIG2        0.0233
     38    H       27.3490    4.4980    3.1050 H       2  LIG2        0.0233
     39    H       29.0030    0.2170    2.3120 H       2  LIG2        0.0257
     40    H       29.6270   -1.3900    2.6100 H       2  LIG2        0.0257
     41    H       30.6010    0.0030    2.9990 H       2  LIG2        0.0257
     42    H       30.7520   -0.7450    5.1330 H       2  LIG2        0.2102
@<TRIPOS>BOND
     1    31    13    1
     2    32    13    1
     3    33    13    1
     4    39    16    1
     5    13     3    1
     6    40    16    1
     7    22     7    1
     8    36    15    1
     9    41    16    1
    10    16     9    1
    11    38    15    1
    12    19     5    1
    13    21     7    1
    14    15    37    1
    15    15     8    1
    16     7    11    1
    17     7     4    1
    18    28    12    1
    19     3    12    1
    20     3     4    1
    21     3     2    1
    22    27    11    1
    23    29    12    1
    24    25    10    1
    25    12    30    1
    26     5     8    1
    27     5     2    1
    28     5     6    1
    29     9    11    1
    30     9     6    1
    31     9     1    1
    32    11    26    1
    33     4     2    1
    34     4    18    1
    35     8    14    1
    36     8    23    1
    37     2    17    1
    38    34    14    1
    39     6    10    1
    40     6    20    1
    41    42     1    1
    42    10    14    1
    43    10    24    1
    44    14    35    1
@<TRIPOS>MOLECULE
11996452_3_run_10.pdb
 42 44 0 0 0
SMALL
GASTEIGER

@<TRIPOS>ATOM
      1    O       30.5090    3.1200    4.6050 O.3     2  LIG2       -0.3886
      2    C       26.5790    1.3380    3.1050 C.3     2  LIG2       -0.0289
      3    C       25.1500    1.7880    3.3590 C.3     2  LIG2       -0.0284
      4    C       26.2190    2.8290    3.1050 C.3     2  LIG2       -0.0319
      5    C       27.5100    0.7820    4.2130 C.3     2  LIG2       -0.0294
      6    C       28.9480    1.3550    4.1460 C.3     2  LIG2       -0.0090
      7    C       26.7920    3.7580    4.1970 C.3     2  LIG2       -0.0468
      8    C       27.6480   -0.7630    4.1490 C.3     2  LIG2       -0.0404
      9    C       29.1550    2.7580    4.8180 C.3     2  LIG2        0.0664
     10    C       29.8240    0.2190    4.7100 C.3     2  LIG2       -0.0471
     11    C       28.3290    3.8950    4.1490 C.3     2  LIG2       -0.0237
     12    C       24.1410    1.5390    2.2220 C.3     2  LIG2       -0.0593
     13    C       24.4890    1.6360    4.7480 C.3     2  LIG2       -0.0593
     14    C       29.1490   -1.0780    4.2720 C.3     2  LIG2       -0.0498
     15    C       26.7720   -1.5060    5.1730 C.3     2  LIG2       -0.0621
     16    C       28.9590    2.7870    6.3560 C.3     2  LIG2       -0.0358
     17    H       26.8160    0.9110    2.1300 H       2  LIG2        0.0312
     18    H       26.1510    3.3500    2.1480 H       2  LIG2        0.0309
     19    H       27.1220    1.0300    5.1970 H       2  LIG2        0.0310
     20    H       29.2160    1.4550    3.0910 H       2  LIG2        0.0331
     21    H       26.3640    4.7480    4.0330 H       2  LIG2        0.0269
     22    H       26.4720    3.4780    5.1970 H       2  LIG2        0.0269
     23    H       27.3420   -1.1100    3.1600 H       2  LIG2        0.0301
     24    H       30.8490    0.2740    4.3420 H       2  LIG2        0.0269
     25    H       29.8710    0.2480    5.7980 H       2  LIG2        0.0269
     26    H       28.6220    3.9960    3.1030 H       2  LIG2        0.0293
     27    H       28.5920    4.8480    4.6160 H       2  LIG2        0.0293
     28    H       23.3140    2.2480    2.2710 H       2  LIG2        0.0235
     29    H       23.7250    0.5330    2.2810 H       2  LIG2        0.0235
     30    H       24.5970    1.6430    1.2370 H       2  LIG2        0.0235
     31    H       23.6710    2.3490    4.8620 H       2  LIG2        0.0235
     32    H       25.1600    1.7950    5.5880 H       2  LIG2        0.0235
     33    H       24.0700    0.6360    4.8660 H       2  LIG2        0.0235
     34    H       29.3550   -1.8850    4.9780 H       2  LIG2        0.0268
     35    H       29.5440   -1.3960    3.3070 H       2  LIG2        0.0268
     36    H       27.0360   -1.2320    6.1960 H       2  LIG2        0.0233
     37    H       26.8880   -2.5870    5.0800 H       2  LIG2        0.0233
     38    H       25.7170   -1.2750    5.0280 H       2  LIG2        0.0233
     39    H       27.9620    2.4670    6.6560 H       2  LIG2        0.0257
     40    H       29.1000    3.7920    6.7560 H       2  LIG2        0.0257
     41    H       29.6710    2.1490    6.8790 H       2  LIG2        0.0257
     42    H       30.5990    3.4450    3.7060 H       2  LIG2        0.2102
@<TRIPOS>BOND
     1    30    12    1
     2    17     2    1
     3    18     4    1
     4    12    28    1
     5    12    29    1
     6    12     3    1
     7    20     6    1
     8    26    11    1
     9     2     4    1
    10     2     3    1
    11     2     5    1
    12     4     3    1
    13     4     7    1
    14    23     8    1
    15    35    14    1
    16     3    13    1
    17    42     1    1
    18    21     7    1
    19     6     5    1
    20     6    10    1
    21     6     9    1
    22    11     7    1
    23    11    27    1
    24    11     9    1
    25     8     5    1
    26     8    14    1
    27     8    15    1
    28     7    22    1
    29     5    19    1
    30    14    10    1
    31    14    34    1
    32    24    10    1
    33     1     9    1
    34    10    25    1
    35    13    31    1
    36    13    33    1
    37    13    32    1
    38     9    16    1
    39    38    15    1
    40    37    15    1
    41    15    36    1
    42    16    39    1
    43    16    40    1
    44    16    41    1
@<TRIPOS>MOLECULE
11996452_3_run_7.pdb
 42 44 0 0 0
SMALL
GASTEIGER

@<TRIPOS>ATOM
      1    O       31.5690    0.3230    5.6050 O.3     2  LIG2       -0.3886
      2    C       28.0200    2.5050    3.7280 C.3     2  LIG2       -0.0289
      3    C       27.1150    3.5730    4.3180 C.3     2  LIG2       -0.0284
      4    C       28.6030    3.6280    4.5950 C.3     2  LIG2       -0.0319
      5    C       28.0690    1.0440    4.2440 C.3     2  LIG2       -0.0294
      6    C       29.5110    0.4920    4.3800 C.3     2  LIG2       -0.0090
      7    C       29.2360    3.2940    5.9630 C.3     2  LIG2       -0.0468
      8    C       27.3080    0.0620    3.3140 C.3     2  LIG2       -0.0404
      9    C       30.2670    0.8780    5.7000 C.3     2  LIG2        0.0664
     10    C       29.3520   -1.0200    4.1290 C.3     2  LIG2       -0.0471
     11    C       30.4970    2.4080    5.8610 C.3     2  LIG2       -0.0237
     12    C       26.5550    4.6170    3.3340 C.3     2  LIG2       -0.0593
     13    C       26.1000    3.2450    5.4370 C.3     2  LIG2       -0.0593
     14    C       28.2300   -1.1520    3.1040 C.3     2  LIG2       -0.0498
     15    C       25.9020   -0.3080    3.8210 C.3     2  LIG2       -0.0621
     16    C       29.6630    0.2870    7.0010 C.3     2  LIG2       -0.0358
     17    H       28.2550    2.5630    2.6640 H       2  LIG2        0.0312
     18    H       29.1430    4.4400    4.1050 H       2  LIG2        0.0309
     19    H       27.6150    0.9730    5.2280 H       2  LIG2        0.0310
     20    H       30.0950    0.8830    3.5420 H       2  LIG2        0.0331
     21    H       29.5290    4.2390    6.4200 H       2  LIG2        0.0269
     22    H       28.5250    2.8540    6.6580 H       2  LIG2        0.0269
     23    H       27.1800    0.5240    2.3330 H       2  LIG2        0.0301
     24    H       30.2750   -1.4720    3.7640 H       2  LIG2        0.0269
     25    H       29.0710   -1.5520    5.0370 H       2  LIG2        0.0269
     26    H       31.0980    2.7790    5.0290 H       2  LIG2        0.0293
     27    H       31.0990    2.5860    6.7550 H       2  LIG2        0.0293
     28    H       26.3180    5.5490    3.8470 H       2  LIG2        0.0235
     29    H       25.6430    4.2550    2.8570 H       2  LIG2        0.0235
     30    H       27.2630    4.8550    2.5400 H       2  LIG2        0.0235
     31    H       25.8530    4.1430    6.0040 H       2  LIG2        0.0235
     32    H       26.4440    2.5060    6.1570 H       2  LIG2        0.0235
     33    H       25.1720    2.8600    5.0120 H       2  LIG2        0.0235
     34    H       27.7070   -2.1040    3.2140 H       2  LIG2        0.0268
     35    H       28.6430   -1.1350    2.0940 H       2  LIG2        0.0268
     36    H       25.9470   -0.8010    4.7930 H       2  LIG2        0.0233
     37    H       25.3990   -0.9840    3.1290 H       2  LIG2        0.0233
     38    H       25.2770    0.5800    3.9260 H       2  LIG2        0.0233
     39    H       28.6300    0.5940    7.1590 H       2  LIG2        0.0257
     40    H       30.2240    0.6060    7.8800 H       2  LIG2        0.0257
     41    H       29.6780   -0.8030    7.0110 H       2  LIG2        0.0257
     42    H       31.8630    0.3930    4.6940 H       2  LIG2        0.2102
@<TRIPOS>BOND
     1    35    14    1
     2    23     8    1
     3    30    12    1
     4    17     2    1
     5    29    12    1
     6    14    34    1
     7    14     8    1
     8    14    10    1
     9    37    15    1
    10     8    15    1
    11     8     5    1
    12    12    28    1
    13    12     3    1
    14    20     6    1
    15     2     5    1
    16     2     3    1
    17     2     4    1
    18    24    10    1
    19    15    38    1
    20    15    36    1
    21    18     4    1
    22    10     6    1
    23    10    25    1
    24     5     6    1
    25     5    19    1
    26     3     4    1
    27     3    13    1
    28     6     9    1
    29     4     7    1
    30    42     1    1
    31    33    13    1
    32    26    11    1
    33    13    31    1
    34    13    32    1
    35     1     9    1
    36     9    11    1
    37     9    16    1
    38    11     7    1
    39    11    27    1
    40     7    21    1
    41     7    22    1
    42    16    41    1
    43    16    39    1
    44    16    40    1
@<TRIPOS>MOLECULE
11996452_3_run_14.pdb
 42 44 0 0 0
SMALL
GASTEIGER

@<TRIPOS>ATOM
      1    O       23.8530    4.3700    3.3770 O.3     2  LIG2       -0.3886
      2    C       27.4350    1.5350    3.2840 C.3     2  LIG2       -0.0289
      3    C       27.6060    0.1650    3.9180 C.3     2  LIG2       -0.0284
      4    C       26.2850    0.5210    3.2690 C.3     2  LIG2       -0.0319
      5    C       27.2830    2.8440    4.1010 C.3     2  LIG2       -0.0294
      6    C       26.1730    3.7780    3.5570 C.3     2  LIG2       -0.0090
      7    C       24.9900    0.8150    4.0570 C.3     2  LIG2       -0.0468
      8    C       28.5890    3.6810    4.1260 C.3     2  LIG2       -0.0404
      9    C       24.7110    3.4390    4.0170 C.3     2  LIG2        0.0664
     10    C       26.6680    5.1910    3.9220 C.3     2  LIG2       -0.0471
     11    C       24.2150    2.0450    3.5370 C.3     2  LIG2       -0.0237
     12    C       28.5020   -0.8330    3.1620 C.3     2  LIG2       -0.0593
     13    C       27.7280   -0.0070    5.4490 C.3     2  LIG2       -0.0593
     14    C       28.1890    5.1340    3.8170 C.3     2  LIG2       -0.0498
     15    C       29.4010    3.5240    5.4240 C.3     2  LIG2       -0.0621
     16    C       24.4420    3.6110    5.5350 C.3     2  LIG2       -0.0358
     17    H       27.9140    1.7170    2.3200 H       2  LIG2        0.0312
     18    H       26.0620   -0.0030    2.3370 H       2  LIG2        0.0309
     19    H       27.0240    2.6200    5.1320 H       2  LIG2        0.0310
     20    H       26.1940    3.7170    2.4650 H       2  LIG2        0.0331
     21    H       24.3430   -0.0570    3.9480 H       2  LIG2        0.0269
     22    H       25.1610    0.9050    5.1260 H       2  LIG2        0.0269
     23    H       29.2370    3.3600    3.3070 H       2  LIG2        0.0301
     24    H       26.2540    5.9520    3.2600 H       2  LIG2        0.0269
     25    H       26.3900    5.4650    4.9390 H       2  LIG2        0.0269
     26    H       24.2230    2.0070    2.4460 H       2  LIG2        0.0293
     27    H       23.1670    1.9210    3.8230 H       2  LIG2        0.0293
     28    H       28.2290   -1.8610    3.4000 H       2  LIG2        0.0235
     29    H       29.5510   -0.6950    3.4270 H       2  LIG2        0.0235
     30    H       28.4240   -0.7200    2.0810 H       2  LIG2        0.0235
     31    H       27.4330   -1.0150    5.7450 H       2  LIG2        0.0235
     32    H       27.1190    0.6800    6.0320 H       2  LIG2        0.0235
     33    H       28.7600    0.1390    5.7700 H       2  LIG2        0.0235
     34    H       28.6560    5.8540    4.4920 H       2  LIG2        0.0268
     35    H       28.5030    5.4010    2.8070 H       2  LIG2        0.0268
     36    H       28.8290    3.8510    6.2930 H       2  LIG2        0.0233
     37    H       30.3170    4.1150    5.3900 H       2  LIG2        0.0233
     38    H       29.6870    2.4840    5.5850 H       2  LIG2        0.0233
     39    H       25.0900    2.9850    6.1470 H       2  LIG2        0.0257
     40    H       23.4160    3.3430    5.7890 H       2  LIG2        0.0257
     41    H       24.5810    4.6380    5.8700 H       2  LIG2        0.0257
     42    H       22.9530    4.2010    3.6660 H       2  LIG2        0.2102
@<TRIPOS>BOND
     1    30    12    1
     2    17     2    1
     3    18     4    1
     4    26    11    1
     5    20     6    1
     6    35    14    1
     7    12    28    1
     8    12    29    1
     9    12     3    1
    10    24    10    1
    11     4     2    1
    12     4     3    1
    13     4     7    1
    14     2     3    1
    15     2     5    1
    16    23     8    1
    17     1    42    1
    18     1     9    1
    19    11    27    1
    20    11     9    1
    21    11     7    1
    22     6    10    1
    23     6     9    1
    24     6     5    1
    25    14    10    1
    26    14     8    1
    27    14    34    1
    28     3    13    1
    29    10    25    1
    30    21     7    1
    31     9    16    1
    32     7    22    1
    33     5     8    1
    34     5    19    1
    35     8    15    1
    36    37    15    1
    37    15    38    1
    38    15    36    1
    39    13    31    1
    40    13    33    1
    41    13    32    1
    42    16    40    1
    43    16    41    1
    44    16    39    1
@<TRIPOS>MOLECULE
11996452_3_run_1.pdb
 42 44 0 0 0
SMALL
GASTEIGER

@<TRIPOS>ATOM
      1    O       28.3490   -2.1540    2.5230 O.3     2  LIG2       -0.3886
      2    C       29.0880    1.9630    4.3620 C.3     2  LIG2       -0.0289
      3    C       29.6750    2.3310    5.7140 C.3     2  LIG2       -0.0284
      4    C       30.2890    1.1930    4.9250 C.3     2  LIG2       -0.0319
      5    C       27.7320    1.2320    4.1880 C.3     2  LIG2       -0.0294
      6    C       27.7800    0.0970    3.1340 C.3     2  LIG2       -0.0090
      7    C       30.1390   -0.2960    5.3040 C.3     2  LIG2       -0.0468
      8    C       26.5950    2.1920    3.7480 C.3     2  LIG2       -0.0404
      9    C       28.3420   -1.2790    3.6390 C.3     2  LIG2        0.0664
     10    C       26.3470    0.0560    2.5690 C.3     2  LIG2       -0.0471
     11    C       29.8260   -1.2120    4.1020 C.3     2  LIG2       -0.0237
     12    C       30.4790    3.6420    5.7780 C.3     2  LIG2       -0.0593
     13    C       28.9020    2.0730    7.0280 C.3     2  LIG2       -0.0593
     14    C       25.8550    1.5010    2.5900 C.3     2  LIG2       -0.0498
     15    C       25.6720    2.6280    4.9000 C.3     2  LIG2       -0.0621
     16    C       27.4770   -1.9890    4.7120 C.3     2  LIG2       -0.0358
     17    H       29.3040    2.6160    3.5150 H       2  LIG2        0.0312
     18    H       31.2780    1.3900    4.5080 H       2  LIG2        0.0309
     19    H       27.4230    0.7740    5.1230 H       2  LIG2        0.0310
     20    H       28.4240    0.4320    2.3150 H       2  LIG2        0.0331
     21    H       31.0910   -0.6170    5.7290 H       2  LIG2        0.0269
     22    H       29.4120   -0.4560    6.0960 H       2  LIG2        0.0269
     23    H       27.0330    3.1010    3.3330 H       2  LIG2        0.0301
     24    H       26.3180   -0.3570    1.5600 H       2  LIG2        0.0269
     25    H       25.6880   -0.5550    3.1860 H       2  LIG2        0.0269
     26    H       30.4580   -0.8960    3.2690 H       2  LIG2        0.0293
     27    H       30.1660   -2.2200    4.3550 H       2  LIG2        0.0293
     28    H       31.2090    3.6140    6.5880 H       2  LIG2        0.0235
     29    H       29.8220    4.4960    5.9470 H       2  LIG2        0.0235
     30    H       31.0280    3.8340    4.8550 H       2  LIG2        0.0235
     31    H       29.5920    2.0040    7.8700 H       2  LIG2        0.0235
     32    H       28.3110    1.1610    7.0330 H       2  LIG2        0.0235
     33    H       28.2150    2.8940    7.2350 H       2  LIG2        0.0235
     34    H       24.7690    1.5430    2.6960 H       2  LIG2        0.0268
     35    H       26.0990    1.9900    1.6460 H       2  LIG2        0.0268
     36    H       25.1710    1.7720    5.3550 H       2  LIG2        0.0233
     37    H       24.9000    3.3140    4.5490 H       2  LIG2        0.0233
     38    H       26.2350    3.1390    5.6820 H       2  LIG2        0.0233
     39    H       27.3440   -1.3850    5.6080 H       2  LIG2        0.0257
     40    H       27.9320   -2.9280    5.0310 H       2  LIG2        0.0257
     41    H       26.4820   -2.2420    4.3470 H       2  LIG2        0.0257
     42    H       27.4400   -2.3450    2.2810 H       2  LIG2        0.2102
@<TRIPOS>BOND
     1    24    10    1
     2    35    14    1
     3    42     1    1
     4    20     6    1
     5     1     9    1
     6    10    14    1
     7    10     6    1
     8    10    25    1
     9    14    34    1
    10    14     8    1
    11     6     9    1
    12     6     5    1
    13    26    11    1
    14    23     8    1
    15    17     2    1
    16     9    11    1
    17     9    16    1
    18     8     5    1
    19     8    15    1
    20    11    27    1
    21    11     7    1
    22     5     2    1
    23     5    19    1
    24    41    16    1
    25     2     4    1
    26     2     3    1
    27    18     4    1
    28    37    15    1
    29    16    40    1
    30    16    39    1
    31    30    12    1
    32    15    36    1
    33    15    38    1
    34     4     7    1
    35     4     3    1
    36     7    21    1
    37     7    22    1
    38     3    12    1
    39     3    13    1
    40    12    29    1
    41    12    28    1
    42    13    32    1
    43    13    33    1
    44    13    31    1
@<TRIPOS>MOLECULE
11996452_3_run_13.pdb
 42 44 0 0 0
SMALL
GASTEIGER

@<TRIPOS>ATOM
      1    O       25.9350    7.4860    3.9420 O.3     2  LIG2       -0.3886
      2    C       26.8160    3.1940    5.2380 C.3     2  LIG2       -0.0289
      3    C       27.9120    2.2470    4.7790 C.3     2  LIG2       -0.0284
      4    C       28.2430    3.7070    5.0060 C.3     2  LIG2       -0.0319
      5    C       25.6720    3.6900    4.3170 C.3     2  LIG2       -0.0294
      6    C       25.3870    5.2060    4.4600 C.3     2  LIG2       -0.0090
      7    C       28.5230    4.7130    3.8690 C.3     2  LIG2       -0.0468
      8    C       24.3310    2.9620    4.5960 C.3     2  LIG2       -0.0404
      9    C       26.3260    6.1570    3.6360 C.3     2  LIG2        0.0664
     10    C       23.8830    5.3300    4.1440 C.3     2  LIG2       -0.0471
     11    C       27.8210    6.0750    4.0600 C.3     2  LIG2       -0.0237
     12    C       28.4370    1.2470    5.8260 C.3     2  LIG2       -0.0593
     13    C       27.9090    1.6350    3.3600 C.3     2  LIG2       -0.0593
     14    C       23.2450    4.0490    4.6740 C.3     2  LIG2       -0.0498
     15    C       24.0140    1.8400    3.5910 C.3     2  LIG2       -0.0621
     16    C       26.1980    6.0350    2.0950 C.3     2  LIG2       -0.0358
     17    H       26.4990    3.1430    6.2810 H       2  LIG2        0.0312
     18    H       28.8700    3.9180    5.8740 H       2  LIG2        0.0309
     19    H       25.9220    3.5170    3.2740 H       2  LIG2        0.0310
     20    H       25.5020    5.4670    5.5160 H       2  LIG2        0.0331
     21    H       29.5990    4.8920    3.8570 H       2  LIG2        0.0269
     22    H       28.2960    4.3090    2.8860 H       2  LIG2        0.0269
     23    H       24.3720    2.4990    5.5840 H       2  LIG2        0.0301
     24    H       23.4410    6.2130    4.6070 H       2  LIG2        0.0269
     25    H       23.7010    5.4040    3.0730 H       2  LIG2        0.0269
     26    H       27.9220    6.3570    5.1100 H       2  LIG2        0.0293
     27    H       28.3910    6.8230    3.5040 H       2  LIG2        0.0293
     28    H       29.4580    0.9420    5.5980 H       2  LIG2        0.0235
     29    H       27.8170    0.3500    5.8550 H       2  LIG2        0.0235
     30    H       28.4420    1.6690    6.8320 H       2  LIG2        0.0235
     31    H       28.9180    1.3410    3.0680 H       2  LIG2        0.0235
     32    H       27.5400    2.2990    2.5810 H       2  LIG2        0.0235
     33    H       27.2870    0.7400    3.3290 H       2  LIG2        0.0235
     34    H       22.3490    3.7940    4.1050 H       2  LIG2        0.0268
     35    H       22.9310    4.1900    5.7090 H       2  LIG2        0.0268
     36    H       23.9290    2.2280    2.5750 H       2  LIG2        0.0233
     37    H       23.0730    1.3460    3.8360 H       2  LIG2        0.0233
     38    H       24.7950    1.0790    3.5930 H       2  LIG2        0.0233
     39    H       26.4170    5.0310    1.7360 H       2  LIG2        0.0257
     40    H       26.8880    6.7090    1.5850 H       2  LIG2        0.0257
     41    H       25.2020    6.2930    1.7380 H       2  LIG2        0.0257
     42    H       26.0580    7.6300    4.8830 H       2  LIG2        0.2102
@<TRIPOS>BOND
     1    40    16    1
     2    39    16    1
     3    41    16    1
     4    16     9    1
     5    36    15    1
     6    32    13    1
     7    22     7    1
     8    31    13    1
     9    25    10    1
    10    19     5    1
    11    33    13    1
    12    13     3    1
    13    27    11    1
    14    15    38    1
    15    15    37    1
    16    15     8    1
    17     9     1    1
    18     9    11    1
    19     9     6    1
    20    21     7    1
    21     7    11    1
    22     7     4    1
    23     1    42    1
    24    11    26    1
    25    34    14    1
    26    10     6    1
    27    10    24    1
    28    10    14    1
    29     5     6    1
    30     5     8    1
    31     5     2    1
    32     6    20    1
    33     8    14    1
    34     8    23    1
    35    14    35    1
    36     3     4    1
    37     3     2    1
    38     3    12    1
    39     4     2    1
    40     4    18    1
    41     2    17    1
    42    28    12    1
    43    12    29    1
    44    12    30    1
@<TRIPOS>MOLECULE
11996452_3_run_7.pdb
 42 44 0 0 0
SMALL
GASTEIGER

@<TRIPOS>ATOM
      1    O       30.0090    0.8870    4.3780 O.3     2  LIG2       -0.3886
      2    C       26.6030    3.6550    3.1060 C.3     2  LIG2       -0.0289
      3    C       26.0700    4.9100    3.7760 C.3     2  LIG2       -0.0284
      4    C       27.5650    4.6750    3.7270 C.3     2  LIG2       -0.0319
      5    C       26.4920    2.2390    3.7280 C.3     2  LIG2       -0.0294
      6    C       27.7980    1.4140    3.6050 C.3     2  LIG2       -0.0090
      7    C       28.4150    4.2820    4.9540 C.3     2  LIG2       -0.0468
      8    C       25.3710    1.3900    3.0710 C.3     2  LIG2       -0.0404
      9    C       28.8890    1.6980    4.6960 C.3     2  LIG2        0.0664
     10    C       27.3060   -0.0450    3.5290 C.3     2  LIG2       -0.0471
     11    C       29.4320    3.1560    4.6680 C.3     2  LIG2       -0.0237
     12    C       25.5090    6.0000    2.8440 C.3     2  LIG2       -0.0593
     13    C       25.2900    4.8450    5.1100 C.3     2  LIG2       -0.0593
     14    C       25.9780    0.0070    2.7790 C.3     2  LIG2       -0.0498
     15    C       24.0720    1.3360    3.8940 C.3     2  LIG2       -0.0621
     16    C       28.4940    1.3010    6.1420 C.3     2  LIG2       -0.0358
     17    H       26.5990    3.6160    2.0160 H       2  LIG2        0.0312
     18    H       28.1240    5.3370    3.0640 H       2  LIG2        0.0309
     19    H       26.2650    2.3060    4.7890 H       2  LIG2        0.0310
     20    H       28.2420    1.6400    2.6310 H       2  LIG2        0.0331
     21    H       28.9760    5.1680    5.2540 H       2  LIG2        0.0269
     22    H       27.8100    4.0280    5.8210 H       2  LIG2        0.0269
     23    H       25.1140    1.8230    2.1020 H       2  LIG2        0.0301
     24    H       28.0220   -0.6900    3.0190 H       2  LIG2        0.0269
     25    H       27.1410   -0.4680    4.5190 H       2  LIG2        0.0269
     26    H       29.8900    3.3590    3.6980 H       2  LIG2        0.0293
     27    H       30.2430    3.2480    5.3950 H       2  LIG2        0.0293
     28    H       25.5730    6.9830    3.3100 H       2  LIG2        0.0235
     29    H       24.4620    5.8080    2.6050 H       2  LIG2        0.0235
     30    H       26.0520    6.0530    1.9000 H       2  LIG2        0.0235
     31    H       25.3490    5.8000    5.6340 H       2  LIG2        0.0235
     32    H       25.6410    4.0860    5.8030 H       2  LIG2        0.0235
     33    H       24.2350    4.6380    4.9260 H       2  LIG2        0.0235
     34    H       25.3240   -0.8140    3.0820 H       2  LIG2        0.0268
     35    H       26.1500   -0.1070    1.7080 H       2  LIG2        0.0268
     36    H       24.2400    0.8890    4.8750 H       2  LIG2        0.0233
     37    H       23.3080    0.7450    3.3870 H       2  LIG2        0.0233
     38    H       23.6640    2.3360    4.0500 H       2  LIG2        0.0233
     39    H       27.5990    1.8180    6.4870 H       2  LIG2        0.0257
     40    H       29.2880    1.5400    6.8510 H       2  LIG2        0.0257
     41    H       28.3060    0.2330    6.2450 H       2  LIG2        0.0257
     42    H       30.3720    1.1860    3.5410 H       2  LIG2        0.2102
@<TRIPOS>BOND
     1    35    14    1
     2    30    12    1
     3    17     2    1
     4    23     8    1
     5    29    12    1
     6    20     6    1
     7    14     8    1
     8    14    34    1
     9    14    10    1
    10    12    28    1
    11    12     3    1
    12    24    10    1
    13    18     4    1
    14     8     5    1
    15     8    15    1
    16     2     4    1
    17     2     5    1
    18     2     3    1
    19    37    15    1
    20    10     6    1
    21    10    25    1
    22    42     1    1
    23     6     5    1
    24     6     9    1
    25    26    11    1
    26     4     3    1
    27     4     7    1
    28     5    19    1
    29     3    13    1
    30    15    38    1
    31    15    36    1
    32     1     9    1
    33    11     9    1
    34    11     7    1
    35    11    27    1
    36     9    16    1
    37    33    13    1
    38     7    21    1
    39     7    22    1
    40    13    31    1
    41    13    32    1
    42    16    41    1
    43    16    39    1
    44    16    40    1
@<TRIPOS>MOLECULE
11996452_3_run_9.pdb
 42 44 0 0 0
SMALL
GASTEIGER

@<TRIPOS>ATOM
      1    O       26.0790   -0.0380    2.5090 O.3     2  LIG2       -0.3886
      2    C       30.0830    0.0030    4.7100 C.3     2  LIG2       -0.0289
      3    C       30.5850   -0.8950    5.8290 C.3     2  LIG2       -0.0284
      4    C       29.8000   -1.5050    4.6860 C.3     2  LIG2       -0.0319
      5    C       28.9020    0.9940    4.8720 C.3     2  LIG2       -0.0294
      6    C       27.9180    0.9730    3.6750 C.3     2  LIG2       -0.0090
      7    C       28.3500   -2.0170    4.8150 C.3     2  LIG2       -0.0468
      8    C       29.3790    2.4630    5.0250 C.3     2  LIG2       -0.0404
      9    C       26.8370   -0.1630    3.7020 C.3     2  LIG2        0.0664
     10    C       27.3640    2.4100    3.6290 C.3     2  LIG2       -0.0471
     11    C       27.4380   -1.5970    3.6420 C.3     2  LIG2       -0.0237
     12    C       32.0990   -1.1740    5.8570 C.3     2  LIG2       -0.0593
     13    C       29.9950   -0.8140    7.2560 C.3     2  LIG2       -0.0593
     14    C       28.5120    3.3100    4.0770 C.3     2  LIG2       -0.0498
     15    C       29.3810    2.9660    6.4790 C.3     2  LIG2       -0.0621
     16    C       25.8040   -0.0630    4.8550 C.3     2  LIG2       -0.0358
     17    H       30.8070    0.3570    3.9750 H       2  LIG2        0.0312
     18    H       30.3750   -2.1330    4.0040 H       2  LIG2        0.0309
     19    H       28.3200    0.7510    5.7570 H       2  LIG2        0.0310
     20    H       28.5090    0.8420    2.7640 H       2  LIG2        0.0331
     21    H       28.3950   -3.1070    4.8280 H       2  LIG2        0.0269
     22    H       27.8910   -1.7450    5.7620 H       2  LIG2        0.0269
     23    H       30.4050    2.5470    4.6590 H       2  LIG2        0.0301
     24    H       27.0160    2.6810    2.6310 H       2  LIG2        0.0269
     25    H       26.5220    2.5400    4.3090 H       2  LIG2        0.0269
     26    H       28.0070   -1.7190    2.7180 H       2  LIG2        0.0293
     27    H       26.6240   -2.3230    3.5780 H       2  LIG2        0.0293
     28    H       32.3120   -2.1200    6.3550 H       2  LIG2        0.0235
     29    H       32.6320   -0.3860    6.3900 H       2  LIG2        0.0235
     30    H       32.5250   -1.2320    4.8550 H       2  LIG2        0.0235
     31    H       30.1540   -1.7520    7.7890 H       2  LIG2        0.0235
     32    H       28.9280   -0.6110    7.2940 H       2  LIG2        0.0235
     33    H       30.4840   -0.0250    7.8290 H       2  LIG2        0.0235
     34    H       28.1360    4.2200    4.5480 H       2  LIG2        0.0268
     35    H       29.1000    3.6220    3.2130 H       2  LIG2        0.0268
     36    H       28.3800    2.9390    6.9110 H       2  LIG2        0.0233
     37    H       29.7400    3.9950    6.5400 H       2  LIG2        0.0233
     38    H       30.0320    2.3540    7.1050 H       2  LIG2        0.0233
     39    H       26.2730   -0.0870    5.8380 H       2  LIG2        0.0257
     40    H       25.0940   -0.8900    4.8250 H       2  LIG2        0.0257
     41    H       25.2110    0.8490    4.8060 H       2  LIG2        0.0257
     42    H       25.5990   -0.8570    2.3670 H       2  LIG2        0.2102
@<TRIPOS>BOND
     1    42     1    1
     2     1     9    1
     3    24    10    1
     4    26    11    1
     5    20     6    1
     6    35    14    1
     7    27    11    1
     8    10     6    1
     9    10    14    1
    10    10    25    1
    11    11     9    1
    12    11     7    1
    13     6     9    1
    14     6     5    1
    15     9    16    1
    16    17     2    1
    17    18     4    1
    18    14    34    1
    19    14     8    1
    20    23     8    1
    21     4     2    1
    22     4     7    1
    23     4     3    1
    24     2     5    1
    25     2     3    1
    26    41    16    1
    27     7    21    1
    28     7    22    1
    29    40    16    1
    30    16    39    1
    31    30    12    1
    32     5     8    1
    33     5    19    1
    34     8    15    1
    35     3    12    1
    36     3    13    1
    37    12    28    1
    38    12    29    1
    39    15    37    1
    40    15    36    1
    41    15    38    1
    42    13    32    1
    43    13    31    1
    44    13    33    1
