# Top-energy pose of compounds ranked according to the score (given in kcal/mol).
@<TRIPOS>MOLECULE
11996452_6_run_3.pdb
 42 44 0 0 0
SMALL
GASTEIGER

@<TRIPOS>ATOM
      1    O      -64.8040  -80.4090  -10.9280 O.3     2  LIG2       -0.3886
      2    C      -62.4580  -78.3840  -14.2060 C.3     2  LIG2       -0.0289
      3    C      -60.9840  -77.9840  -14.3670 C.3     2  LIG2       -0.0284
      4    C      -61.5700  -78.1540  -12.9790 C.3     2  LIG2       -0.0319
      5    C      -63.1540  -79.7730  -14.4000 C.3     2  LIG2       -0.0294
      6    C      -64.1540  -80.2150  -13.2810 C.3     2  LIG2       -0.0090
      7    C      -61.3190  -79.3600  -12.0500 C.3     2  LIG2       -0.0468
      8    C      -62.3560  -81.0370  -14.8400 C.3     2  LIG2       -0.0404
      9    C      -63.9620  -79.6800  -11.8090 C.3     2  LIG2        0.0664
     10    C      -64.2370  -81.7490  -13.4530 C.3     2  LIG2       -0.0471
     11    C      -62.5300  -79.7790  -11.1890 C.3     2  LIG2       -0.0237
     12    C      -59.8350  -78.9100  -14.8320 C.3     2  LIG2       -0.0593
     13    C      -60.7480  -76.5350  -14.8400 C.3     2  LIG2       -0.0593
     14    C      -62.8770  -82.1940  -13.9750 C.3     2  LIG2       -0.0498
     15    C      -62.4200  -81.3250  -16.3530 C.3     2  LIG2       -0.0621
     16    C      -64.5330  -78.2440  -11.6430 C.3     2  LIG2       -0.0358
     17    H      -63.1820  -77.5950  -14.4180 H       2  LIG2        0.0312
     18    H      -61.6920  -77.2360  -12.4030 H       2  LIG2        0.0309
     19    H      -63.8100  -79.5760  -15.2510 H       2  LIG2        0.0310
     20    H      -65.1370  -79.8450  -13.5810 H       2  LIG2        0.0331
     21    H      -60.9900  -80.2340  -12.5990 H       2  LIG2        0.0269
     22    H      -60.4830  -79.1220  -11.3910 H       2  LIG2        0.0269
     23    H      -61.3090  -80.9590  -14.5960 H       2  LIG2        0.0301
     24    H      -64.4860  -82.2890  -12.5400 H       2  LIG2        0.0269
     25    H      -65.0110  -81.9990  -14.1790 H       2  LIG2        0.0269
     26    H      -62.3430  -80.8100  -10.8810 H       2  LIG2        0.0293
     27    H      -62.5010  -79.1950  -10.2680 H       2  LIG2        0.0293
     28    H      -58.8820  -78.3800  -14.8090 H       2  LIG2        0.0235
     29    H      -59.9910  -79.2350  -15.8600 H       2  LIG2        0.0235
     30    H      -59.6670  -79.7870  -14.2150 H       2  LIG2        0.0235
     31    H      -59.7890  -76.1550  -14.4860 H       2  LIG2        0.0235
     32    H      -61.5150  -75.8500  -14.4770 H       2  LIG2        0.0235
     33    H      -60.7510  -76.4760  -15.9290 H       2  LIG2        0.0235
     34    H      -62.9570  -83.1320  -14.5270 H       2  LIG2        0.0268
     35    H      -62.1990  -82.3750  -13.1400 H       2  LIG2        0.0268
     36    H      -63.4440  -81.5140  -16.6810 H       2  LIG2        0.0233
     37    H      -61.8230  -82.2000  -16.6140 H       2  LIG2        0.0233
     38    H      -62.0360  -80.4830  -16.9290 H       2  LIG2        0.0233
     39    H      -64.0220  -77.5010  -12.2490 H       2  LIG2        0.0257
     40    H      -64.4710  -77.8950  -10.6110 H       2  LIG2        0.0257
     41    H      -65.5850  -78.1950  -11.9280 H       2  LIG2        0.0257
     42    H      -64.6320  -80.1140  -10.0300 H       2  LIG2        0.2102
@<TRIPOS>BOND
     1    38    15    1
     2    36    15    1
     3    37    15    1
     4    15     8    1
     5    33    13    1
     6    29    12    1
     7    19     5    1
     8    13    31    1
     9    13    32    1
    10    13     3    1
    11     8    23    1
    12     8     5    1
    13     8    14    1
    14    12    28    1
    15    12     3    1
    16    12    30    1
    17    34    14    1
    18    17     2    1
    19     5     2    1
    20     5     6    1
    21     3     2    1
    22     3     4    1
    23     2     4    1
    24    25    10    1
    25    14    10    1
    26    14    35    1
    27    20     6    1
    28    10     6    1
    29    10    24    1
    30     6     9    1
    31     4    18    1
    32     4     7    1
    33    21     7    1
    34    39    16    1
    35     7    22    1
    36     7    11    1
    37    41    16    1
    38     9    16    1
    39     9    11    1
    40     9     1    1
    41    16    40    1
    42    11    26    1
    43    11    27    1
    44     1    42    1
@<TRIPOS>MOLECULE
11996452_10_run_6.pdb
 42 44 0 0 0
SMALL
GASTEIGER

@<TRIPOS>ATOM
      1    O      -65.3320  -77.7180  -11.9540 O.3     2  LIG2       -0.3886
      2    C      -61.7070  -80.2660  -13.0980 C.3     2  LIG2       -0.0289
      3    C      -62.3360  -81.1360  -14.1750 C.3     2  LIG2       -0.0284
      4    C      -62.8660  -81.2280  -12.7540 C.3     2  LIG2       -0.0319
      5    C      -61.8010  -78.7140  -12.9120 C.3     2  LIG2       -0.0294
      6    C      -63.1720  -77.9870  -12.9040 C.3     2  LIG2       -0.0090
      7    C      -64.2540  -80.6970  -12.3260 C.3     2  LIG2       -0.0468
      8    C      -60.8380  -77.8560  -13.7890 C.3     2  LIG2       -0.0404
      9    C      -64.0330  -78.1710  -11.6070 C.3     2  LIG2        0.0664
     10    C      -62.8290  -76.5380  -13.2890 C.3     2  LIG2       -0.0471
     11    C      -64.1970  -79.6590  -11.1860 C.3     2  LIG2       -0.0237
     12    C      -63.2230  -80.6130  -15.3310 C.3     2  LIG2       -0.0593
     13    C      -61.4690  -82.3160  -14.6570 C.3     2  LIG2       -0.0593
     14    C      -61.6770  -76.6660  -14.2820 C.3     2  LIG2       -0.0498
     15    C      -60.1250  -78.5800  -14.9490 C.3     2  LIG2       -0.0621
     16    C      -63.5750  -77.3390  -10.3850 C.3     2  LIG2       -0.0358
     17    H      -60.7190  -80.5890  -12.7660 H       2  LIG2        0.0312
     18    H      -62.6250  -82.1490  -12.2190 H       2  LIG2        0.0309
     19    H      -61.4240  -78.5760  -11.8970 H       2  LIG2        0.0310
     20    H      -63.7580  -78.3490  -13.7400 H       2  LIG2        0.0331
     21    H      -64.8510  -80.3260  -13.1570 H       2  LIG2        0.0269
     22    H      -64.8180  -81.5530  -11.9520 H       2  LIG2        0.0269
     23    H      -60.0510  -77.4570  -13.1440 H       2  LIG2        0.0301
     24    H      -63.6800  -76.0160  -13.7290 H       2  LIG2        0.0269
     25    H      -62.4970  -75.9560  -12.4300 H       2  LIG2        0.0269
     26    H      -65.0850  -79.7680  -10.5600 H       2  LIG2        0.0293
     27    H      -63.3710  -79.9400  -10.5310 H       2  LIG2        0.0293
     28    H      -63.8240  -81.4270  -15.7360 H       2  LIG2        0.0235
     29    H      -62.6160  -80.2320  -16.1510 H       2  LIG2        0.0235
     30    H      -63.9290  -79.8360  -15.0750 H       2  LIG2        0.0235
     31    H      -62.0870  -83.1270  -15.0470 H       2  LIG2        0.0235
     32    H      -60.8590  -82.7370  -13.8560 H       2  LIG2        0.0235
     33    H      -60.7890  -82.0030  -15.4490 H       2  LIG2        0.0235
     34    H      -61.0920  -75.7470  -14.3300 H       2  LIG2        0.0268
     35    H      -62.0690  -76.8520  -15.2830 H       2  LIG2        0.0268
     36    H      -60.8290  -78.9730  -15.6790 H       2  LIG2        0.0233
     37    H      -59.5150  -79.4090  -14.5890 H       2  LIG2        0.0233
     38    H      -59.4580  -77.8990  -15.4780 H       2  LIG2        0.0233
     39    H      -62.5390  -77.5530  -10.1190 H       2  LIG2        0.0257
     40    H      -64.1860  -77.5520   -9.5070 H       2  LIG2        0.0257
     41    H      -63.6540  -76.2660  -10.5610 H       2  LIG2        0.0257
     42    H      -65.2880  -76.7750  -12.1290 H       2  LIG2        0.2102
@<TRIPOS>BOND
     1    29    12    1
     2    28    12    1
     3    36    15    1
     4    38    15    1
     5    33    13    1
     6    12    30    1
     7    12     3    1
     8    35    14    1
     9    31    13    1
    10    15    37    1
    11    15     8    1
    12    13     3    1
    13    13    32    1
    14    34    14    1
    15    14     8    1
    16    14    10    1
    17     3     2    1
    18     3     4    1
    19     8    23    1
    20     8     5    1
    21    20     6    1
    22    24    10    1
    23    10     6    1
    24    10    25    1
    25    21     7    1
    26     2     5    1
    27     2    17    1
    28     2     4    1
    29     5     6    1
    30     5    19    1
    31     6     9    1
    32     4     7    1
    33     4    18    1
    34     7    22    1
    35     7    11    1
    36    42     1    1
    37     1     9    1
    38     9    11    1
    39     9    16    1
    40    11    26    1
    41    11    27    1
    42    41    16    1
    43    16    39    1
    44    16    40    1
@<TRIPOS>MOLECULE
11996452_2_run_12.pdb
 42 44 0 0 0
SMALL
GASTEIGER

@<TRIPOS>ATOM
      1    O      -65.2460  -78.1720  -11.8070 O.3     2  LIG2       -0.3886
      2    C      -61.8330  -80.7130  -13.5280 C.3     2  LIG2       -0.0289
      3    C      -62.5150  -81.5200  -14.6190 C.3     2  LIG2       -0.0284
      4    C      -62.9820  -81.6860  -13.1850 C.3     2  LIG2       -0.0319
      5    C      -61.9150  -79.1650  -13.3310 C.3     2  LIG2       -0.0294
      6    C      -63.2600  -78.4440  -13.0660 C.3     2  LIG2       -0.0090
      7    C      -64.3350  -81.1670  -12.6520 C.3     2  LIG2       -0.0468
      8    C      -61.2490  -78.3750  -14.4810 C.3     2  LIG2       -0.0404
      9    C      -63.9510  -78.7400  -11.6890 C.3     2  LIG2        0.0664
     10    C      -62.9230  -76.9650  -13.3450 C.3     2  LIG2       -0.0471
     11    C      -64.1770  -80.2560  -11.4190 C.3     2  LIG2       -0.0237
     12    C      -63.4250  -80.8920  -15.6990 C.3     2  LIG2       -0.0593
     13    C      -61.6880  -82.6790  -15.2100 C.3     2  LIG2       -0.0593
     14    C      -61.8820  -76.9710  -14.4690 C.3     2  LIG2       -0.0498
     15    C      -59.7100  -78.3600  -14.4180 C.3     2  LIG2       -0.0621
     16    C      -63.2770  -78.0930  -10.4550 C.3     2  LIG2       -0.0358
     17    H      -60.8290  -81.0470  -13.2650 H       2  LIG2        0.0312
     18    H      -62.7250  -82.6390  -12.7180 H       2  LIG2        0.0309
     19    H      -61.3220  -78.9670  -12.4360 H       2  LIG2        0.0310
     20    H      -63.9610  -78.7150  -13.8490 H       2  LIG2        0.0331
     21    H      -64.9500  -80.6970  -13.4160 H       2  LIG2        0.0269
     22    H      -64.9090  -82.0410  -12.3400 H       2  LIG2        0.0269
     23    H      -61.5260  -78.8370  -15.4290 H       2  LIG2        0.0301
     24    H      -63.8090  -76.3940  -13.6290 H       2  LIG2        0.0269
     25    H      -62.4940  -76.4770  -12.4720 H       2  LIG2        0.0269
     26    H      -65.0390  -80.3920  -10.7630 H       2  LIG2        0.0293
     27    H      -63.3410  -80.6440  -10.8340 H       2  LIG2        0.0293
     28    H      -64.0960  -81.6450  -16.1120 H       2  LIG2        0.0235
     29    H      -62.8310  -80.5010  -16.5250 H       2  LIG2        0.0235
     30    H      -64.0560  -80.0830  -15.3570 H       2  LIG2        0.0235
     31    H      -62.3350  -83.4550  -15.6210 H       2  LIG2        0.0235
     32    H      -61.0490  -83.1530  -14.4650 H       2  LIG2        0.0235
     33    H      -61.0390  -82.3250  -16.0130 H       2  LIG2        0.0235
     34    H      -61.1470  -76.1790  -14.3210 H       2  LIG2        0.0268
     35    H      -62.3660  -76.7730  -15.4260 H       2  LIG2        0.0268
     36    H      -59.3530  -77.8930  -13.4990 H       2  LIG2        0.0233
     37    H      -59.2890  -77.8070  -15.2570 H       2  LIG2        0.0233
     38    H      -59.3030  -79.3720  -14.4570 H       2  LIG2        0.0233
     39    H      -62.2390  -78.4090  -10.3530 H       2  LIG2        0.0257
     40    H      -63.7910  -78.3700   -9.5330 H       2  LIG2        0.0257
     41    H      -63.2890  -77.0040  -10.4950 H       2  LIG2        0.0257
     42    H      -65.1540  -77.2190  -11.8780 H       2  LIG2        0.2102
@<TRIPOS>BOND
     1    29    12    1
     2    28    12    1
     3    33    13    1
     4    12    30    1
     5    12     3    1
     6    31    13    1
     7    23     8    1
     8    35    14    1
     9    37    15    1
    10    13     3    1
    11    13    32    1
    12     3     2    1
    13     3     4    1
    14     8    14    1
    15     8    15    1
    16     8     5    1
    17    14    34    1
    18    14    10    1
    19    38    15    1
    20    15    36    1
    21    20     6    1
    22    24    10    1
    23     2     5    1
    24     2    17    1
    25     2     4    1
    26    21     7    1
    27    10     6    1
    28    10    25    1
    29     5     6    1
    30     5    19    1
    31     4    18    1
    32     4     7    1
    33     6     9    1
    34     7    22    1
    35     7    11    1
    36    42     1    1
    37     1     9    1
    38     9    11    1
    39     9    16    1
    40    11    27    1
    41    11    26    1
    42    41    16    1
    43    16    39    1
    44    16    40    1
@<TRIPOS>MOLECULE
11996452_9_run_6.pdb
 42 44 0 0 0
SMALL
GASTEIGER

@<TRIPOS>ATOM
      1    O      -65.0480  -78.6240  -12.2860 O.3     2  LIG2       -0.3886
      2    C      -63.3950  -80.2790  -14.1670 C.3     2  LIG2       -0.0289
      3    C      -62.9940  -81.7610  -14.1490 C.3     2  LIG2       -0.0284
      4    C      -63.5430  -81.1150  -12.8920 C.3     2  LIG2       -0.0319
      5    C      -62.5030  -78.9910  -14.1420 C.3     2  LIG2       -0.0294
      6    C      -62.9390  -77.8610  -13.1500 C.3     2  LIG2       -0.0090
      7    C      -62.7040  -80.6880  -11.6680 C.3     2  LIG2       -0.0468
      8    C      -60.9480  -79.0680  -14.1060 C.3     2  LIG2       -0.0404
      9    C      -63.7530  -78.2320  -11.8520 C.3     2  LIG2        0.0664
     10    C      -61.6510  -77.0380  -12.9380 C.3     2  LIG2       -0.0471
     11    C      -63.1880  -79.3940  -10.9750 C.3     2  LIG2       -0.0237
     12    C      -63.9470  -82.7050  -14.9120 C.3     2  LIG2       -0.0593
     13    C      -61.5490  -82.3130  -14.1560 C.3     2  LIG2       -0.0593
     14    C      -60.4920  -78.0160  -13.0840 C.3     2  LIG2       -0.0498
     15    C      -60.2820  -78.9070  -15.4870 C.3     2  LIG2       -0.0621
     16    C      -64.0370  -77.0060  -10.9490 C.3     2  LIG2       -0.0358
     17    H      -64.3330  -80.0470  -14.6750 H       2  LIG2        0.0312
     18    H      -64.5430  -81.4300  -12.5900 H       2  LIG2        0.0309
     19    H      -62.7180  -78.5550  -15.1210 H       2  LIG2        0.0310
     20    H      -63.6040  -77.1980  -13.7120 H       2  LIG2        0.0331
     21    H      -62.7080  -81.5010  -10.9410 H       2  LIG2        0.0269
     22    H      -61.6580  -80.5540  -11.9190 H       2  LIG2        0.0269
     23    H      -60.5990  -80.0080  -13.7140 H       2  LIG2        0.0301
     24    H      -61.5770  -76.2630  -13.7040 H       2  LIG2        0.0269
     25    H      -61.5990  -76.5270  -11.9780 H       2  LIG2        0.0269
     26    H      -63.9310  -79.6630  -10.2210 H       2  LIG2        0.0293
     27    H      -62.3410  -79.0100  -10.4040 H       2  LIG2        0.0293
     28    H      -63.9260  -83.7110  -14.4930 H       2  LIG2        0.0235
     29    H      -63.6670  -82.7720  -15.9620 H       2  LIG2        0.0235
     30    H      -64.9830  -82.3640  -14.8740 H       2  LIG2        0.0235
     31    H      -61.5540  -83.4020  -14.0910 H       2  LIG2        0.0235
     32    H      -60.9300  -81.9980  -13.3220 H       2  LIG2        0.0235
     33    H      -61.0390  -82.0550  -15.0840 H       2  LIG2        0.0235
     34    H      -60.2810  -78.4890  -12.1230 H       2  LIG2        0.0268
     35    H      -59.5790  -77.5010  -13.3870 H       2  LIG2        0.0268
     36    H      -60.5060  -77.9360  -15.9290 H       2  LIG2        0.0233
     37    H      -60.6270  -79.6760  -16.1790 H       2  LIG2        0.0233
     38    H      -59.1980  -78.9950  -15.4140 H       2  LIG2        0.0233
     39    H      -63.1440  -76.6740  -10.4190 H       2  LIG2        0.0257
     40    H      -64.7800  -77.2290  -10.1820 H       2  LIG2        0.0257
     41    H      -64.4120  -76.1590  -11.5250 H       2  LIG2        0.0257
     42    H      -65.4580  -77.8800  -12.7300 H       2  LIG2        0.2102
@<TRIPOS>BOND
     1    37    15    1
     2    29    12    1
     3    36    15    1
     4    15    38    1
     5    15     8    1
     6    19     5    1
     7    33    13    1
     8    12    30    1
     9    12    28    1
    10    12     3    1
    11    17     2    1
    12     2     3    1
    13     2     5    1
    14     2     4    1
    15    13     3    1
    16    13    31    1
    17    13    32    1
    18     3     4    1
    19     5     8    1
    20     5     6    1
    21     8    23    1
    22     8    14    1
    23    20     6    1
    24    24    10    1
    25    35    14    1
    26     6    10    1
    27     6     9    1
    28    14    10    1
    29    14    34    1
    30    10    25    1
    31     4    18    1
    32     4     7    1
    33    42     1    1
    34     1     9    1
    35    22     7    1
    36     9    11    1
    37     9    16    1
    38     7    11    1
    39     7    21    1
    40    41    16    1
    41    11    27    1
    42    11    26    1
    43    16    39    1
    44    16    40    1
@<TRIPOS>MOLECULE
5281519_run_11.pdb
 39 39 0 0 0
SMALL
GASTEIGER

@<TRIPOS>ATOM
      1    C      -61.0710  -80.6820  -13.9450 C.3     2  LIG2       -0.0275
      2    C      -62.4610  -81.1120  -13.4290 C.2     2  LIG2       -0.0668
      3    C      -61.0170  -79.4730  -14.9290 C.3     2  LIG2       -0.0283
      4    C      -62.7460  -80.7270  -11.9610 C.3     2  LIG2       -0.0130
      5    C      -61.2610  -78.1150  -14.2800 C.2     2  LIG2       -0.0762
      6    C      -63.2950  -76.8390  -12.0030 C.3     2  LIG2       -0.0286
      7    C      -62.9850  -76.3920  -13.4650 C.3     2  LIG2       -0.0308
      8    C      -63.6620  -78.3200  -11.8870 C.2     2  LIG2       -0.0759
      9    C      -63.3430  -81.7970  -14.2130 C.2     2  LIG2       -0.0762
     10    C      -62.6790  -79.2320  -11.7170 C.2     2  LIG2       -0.0810
     11    C      -62.4760  -77.5280  -14.3500 C.2     2  LIG2       -0.0847
     12    C      -60.0940  -77.5650  -13.4680 C.3     2  LIG2       -0.0438
     13    C      -65.1090  -78.6540  -12.2210 C.3     2  LIG2       -0.0438
     14    C      -63.0730  -82.1780  -15.6670 C.3     2  LIG2       -0.0438
     15    C      -64.7090  -82.3000  -13.7510 C.3     2  LIG2       -0.0438
     16    H      -60.4080  -80.5070  -13.0970 H       2  LIG2        0.0313
     17    H      -60.6220  -81.5450  -14.4370 H       2  LIG2        0.0313
     18    H      -60.0420  -79.4400  -15.4160 H       2  LIG2        0.0313
     19    H      -61.7340  -79.6230  -15.7370 H       2  LIG2        0.0313
     20    H      -63.7150  -81.0700  -11.6140 H       2  LIG2        0.0352
     21    H      -62.0270  -81.2280  -11.3130 H       2  LIG2        0.0352
     22    H      -62.4050  -76.6590  -11.3970 H       2  LIG2        0.0313
     23    H      -64.0720  -76.2170  -11.5570 H       2  LIG2        0.0313
     24    H      -63.8990  -76.0170  -13.9290 H       2  LIG2        0.0310
     25    H      -62.2890  -75.5530  -13.4760 H       2  LIG2        0.0310
     26    H      -61.6770  -78.8720  -11.5330 H       2  LIG2        0.0575
     27    H      -63.2470  -78.0170  -14.9280 H       2  LIG2        0.0572
     28    H      -59.7360  -78.2990  -12.7460 H       2  LIG2        0.0274
     29    H      -60.3530  -76.6630  -12.9160 H       2  LIG2        0.0274
     30    H      -59.2690  -77.3120  -14.1340 H       2  LIG2        0.0274
     31    H      -65.7620  -78.3190  -11.4140 H       2  LIG2        0.0274
     32    H      -65.2800  -79.7180  -12.3600 H       2  LIG2        0.0274
     33    H      -65.4150  -78.1520  -13.1390 H       2  LIG2        0.0274
     34    H      -63.1280  -83.2600  -15.7910 H       2  LIG2        0.0274
     35    H      -62.0990  -81.8710  -16.0410 H       2  LIG2        0.0274
     36    H      -63.8210  -81.7220  -16.3150 H       2  LIG2        0.0274
     37    H      -64.9450  -83.2590  -14.2150 H       2  LIG2        0.0274
     38    H      -65.4830  -81.5930  -14.0490 H       2  LIG2        0.0274
     39    H      -64.7890  -82.4630  -12.6790 H       2  LIG2        0.0274
@<TRIPOS>BOND
     1    36    14    1
     2    35    14    1
     3    34    14    1
     4    19     3    1
     5    14     9    1
     6    18     3    1
     7     3     5    1
     8     3     1    1
     9    27    11    1
    10    17     1    1
    11    11     5    2
    12    11     7    1
    13     5    12    1
    14    37    15    1
    15     9    15    1
    16     9     2    2
    17    30    12    1
    18    38    15    1
    19     1     2    1
    20     1    16    1
    21    24     7    1
    22    15    39    1
    23    25     7    1
    24    12    29    1
    25    12    28    1
    26     7     6    1
    27     2     4    1
    28    33    13    1
    29    32    13    1
    30    13     8    1
    31    13    31    1
    32     6     8    1
    33     6    23    1
    34     6    22    1
    35     4    10    1
    36     4    20    1
    37     4    21    1
    38     8    10    2
    39    10    26    1
@<TRIPOS>MOLECULE
11996452_1_run_9.pdb
 42 44 0 0 0
SMALL
GASTEIGER

@<TRIPOS>ATOM
      1    O      -59.8900  -77.4490  -13.1050 O.3     2  LIG2       -0.3886
      2    C      -61.9120  -80.2710  -12.6850 C.3     2  LIG2       -0.0289
      3    C      -62.5630  -80.9900  -13.8560 C.3     2  LIG2       -0.0284
      4    C      -61.1430  -80.4880  -14.0070 C.3     2  LIG2       -0.0319
      5    C      -62.3300  -78.9180  -12.0060 C.3     2  LIG2       -0.0294
      6    C      -62.2730  -77.5210  -12.6780 C.3     2  LIG2       -0.0090
      7    C      -60.7220  -79.4240  -15.0480 C.3     2  LIG2       -0.0468
      8    C      -63.7260  -78.9110  -11.3280 C.3     2  LIG2       -0.0404
      9    C      -61.1530  -77.1960  -13.7030 C.3     2  LIG2        0.0664
     10    C      -63.7250  -77.1510  -13.0540 C.3     2  LIG2       -0.0471
     11    C      -61.2530  -77.9820  -15.0280 C.3     2  LIG2       -0.0237
     12    C      -62.7270  -82.5180  -13.7250 C.3     2  LIG2       -0.0593
     13    C      -63.7200  -80.3780  -14.6640 C.3     2  LIG2       -0.0593
     14    C      -64.6400  -78.0940  -12.2570 C.3     2  LIG2       -0.0498
     15    C      -64.3060  -80.2800  -10.9200 C.3     2  LIG2       -0.0621
     16    C      -61.1270  -75.6800  -14.0180 C.3     2  LIG2       -0.0358
     17    H      -61.6080  -80.9420  -11.8780 H       2  LIG2        0.0312
     18    H      -60.3290  -81.2050  -13.8960 H       2  LIG2        0.0309
     19    H      -61.6010  -78.8520  -11.1950 H       2  LIG2        0.0310
     20    H      -62.0580  -76.8430  -11.8460 H       2  LIG2        0.0331
     21    H      -59.6310  -79.3720  -15.0250 H       2  LIG2        0.0269
     22    H      -60.9370  -79.8400  -16.0330 H       2  LIG2        0.0269
     23    H      -63.6320  -78.3420  -10.4000 H       2  LIG2        0.0301
     24    H      -63.9300  -76.1160  -12.7750 H       2  LIG2        0.0269
     25    H      -63.9230  -77.2100  -14.1220 H       2  LIG2        0.0269
     26    H      -60.6800  -77.4500  -15.7900 H       2  LIG2        0.0293
     27    H      -62.2630  -77.9340  -15.4290 H       2  LIG2        0.0293
     28    H      -62.7660  -82.9930  -14.7060 H       2  LIG2        0.0235
     29    H      -63.6460  -82.7700  -13.1960 H       2  LIG2        0.0235
     30    H      -61.9030  -82.9770  -13.1780 H       2  LIG2        0.0235
     31    H      -63.7150  -80.7510  -15.6890 H       2  LIG2        0.0235
     32    H      -63.6840  -79.3010  -14.7200 H       2  LIG2        0.0235
     33    H      -64.6830  -80.6410  -14.2260 H       2  LIG2        0.0235
     34    H      -65.2110  -78.7380  -12.9250 H       2  LIG2        0.0268
     35    H      -65.3690  -77.5250  -11.6790 H       2  LIG2        0.0268
     36    H      -64.5200  -80.9080  -11.7830 H       2  LIG2        0.0233
     37    H      -65.2400  -80.1580  -10.3710 H       2  LIG2        0.0233
     38    H      -63.6160  -80.8230  -10.2730 H       2  LIG2        0.0233
     39    H      -62.0380  -75.3650  -14.5290 H       2  LIG2        0.0257
     40    H      -60.2890  -75.4090  -14.6640 H       2  LIG2        0.0257
     41    H      -61.0390  -75.0790  -13.1120 H       2  LIG2        0.0257
     42    H      -59.8900  -78.3440  -12.7610 H       2  LIG2        0.2102
@<TRIPOS>BOND
     1    22     7    1
     2    26    11    1
     3    31    13    1
     4    27    11    1
     5     7    11    1
     6     7    21    1
     7     7     4    1
     8    11     9    1
     9    32    13    1
    10    28    12    1
    11    40    16    1
    12    13    33    1
    13    13     3    1
    14    39    16    1
    15    25    10    1
    16    16     9    1
    17    16    41    1
    18     4    18    1
    19     4     3    1
    20     4     2    1
    21     3    12    1
    22     3     2    1
    23    12    29    1
    24    12    30    1
    25     9     1    1
    26     9     6    1
    27     1    42    1
    28    10    24    1
    29    10     6    1
    30    10    14    1
    31    34    14    1
    32     2     5    1
    33     2    17    1
    34     6     5    1
    35     6    20    1
    36    14    35    1
    37    14     8    1
    38     5     8    1
    39     5    19    1
    40    36    15    1
    41     8    15    1
    42     8    23    1
    43    15    37    1
    44    15    38    1
@<TRIPOS>MOLECULE
11996452_5_run_1.pdb
 42 44 0 0 0
SMALL
GASTEIGER

@<TRIPOS>ATOM
      1    O      -70.9560  -88.6590  -12.0200 O.3     2  LIG2       -0.3886
      2    C      -69.4120  -87.0510   -8.4190 C.3     2  LIG2       -0.0289
      3    C      -68.3900  -87.6580   -7.4740 C.3     2  LIG2       -0.0284
      4    C      -68.0040  -87.4350   -8.9290 C.3     2  LIG2       -0.0319
      5    C      -70.7320  -87.6870   -8.9730 C.3     2  LIG2       -0.0294
      6    C      -70.7390  -89.1070   -9.5990 C.3     2  LIG2       -0.0090
      7    C      -67.8080  -88.5820   -9.9500 C.3     2  LIG2       -0.0468
      8    C      -71.9820  -87.5930   -8.0460 C.3     2  LIG2       -0.0404
      9    C      -70.1090  -89.2170  -11.0270 C.3     2  LIG2        0.0664
     10    C      -72.2070  -89.5560   -9.4860 C.3     2  LIG2       -0.0471
     11    C      -68.7420  -88.4910  -11.1730 C.3     2  LIG2       -0.0237
     12    C      -67.7780  -86.6810   -6.4510 C.3     2  LIG2       -0.0593
     13    C      -68.4690  -89.0840   -6.8760 C.3     2  LIG2       -0.0593
     14    C      -72.7040  -88.9440   -8.1800 C.3     2  LIG2       -0.0498
     15    C      -71.7190  -87.2260   -6.5710 C.3     2  LIG2       -0.0621
     16    C      -69.9450  -90.7020  -11.4270 C.3     2  LIG2       -0.0358
     17    H      -69.5820  -85.9810   -8.2910 H       2  LIG2        0.0312
     18    H      -67.2890  -86.6310   -9.1080 H       2  LIG2        0.0309
     19    H      -70.9780  -87.0320   -9.8120 H       2  LIG2        0.0310
     20    H      -70.1980  -89.7860   -8.9570 H       2  LIG2        0.0331
     21    H      -66.7860  -88.5000  -10.3220 H       2  LIG2        0.0269
     22    H      -67.8500  -89.5710   -9.5010 H       2  LIG2        0.0269
     23    H      -72.6460  -86.8230   -8.4430 H       2  LIG2        0.0301
     24    H      -72.8070  -89.1880  -10.3190 H       2  LIG2        0.0269
     25    H      -72.3050  -90.6430   -9.4720 H       2  LIG2        0.0269
     26    H      -68.8960  -87.4320  -11.3900 H       2  LIG2        0.0293
     27    H      -68.2110  -88.8810  -12.0440 H       2  LIG2        0.0293
     28    H      -66.7900  -87.0130   -6.1320 H       2  LIG2        0.0235
     29    H      -68.4070  -86.6010   -5.5640 H       2  LIG2        0.0235
     30    H      -67.6630  -85.6750   -6.8560 H       2  LIG2        0.0235
     31    H      -67.4910  -89.3840   -6.5020 H       2  LIG2        0.0235
     32    H      -68.7630  -89.8700   -7.5560 H       2  LIG2        0.0235
     33    H      -69.1550  -89.1190   -6.0300 H       2  LIG2        0.0235
     34    H      -72.4570  -89.6030   -7.3450 H       2  LIG2        0.0268
     35    H      -73.7890  -88.8270   -8.1860 H       2  LIG2        0.0268
     36    H      -71.0900  -87.9610   -6.0740 H       2  LIG2        0.0233
     37    H      -72.6550  -87.1710   -6.0140 H       2  LIG2        0.0233
     38    H      -71.2370  -86.2530   -6.4800 H       2  LIG2        0.0233
     39    H      -69.2720  -91.2260  -10.7480 H       2  LIG2        0.0257
     40    H      -69.5380  -90.8140  -12.4340 H       2  LIG2        0.0257
     41    H      -70.8970  -91.2340  -11.4110 H       2  LIG2        0.0257
     42    H      -71.0390  -87.7180  -11.8540 H       2  LIG2        0.2102
@<TRIPOS>BOND
     1    40    16    1
     2    27    11    1
     3     1    42    1
     4     1     9    1
     5    16    41    1
     6    16     9    1
     7    16    39    1
     8    26    11    1
     9    11     9    1
    10    11     7    1
    11     9     6    1
    12    21     7    1
    13    24    10    1
    14     7    22    1
    15     7     4    1
    16    19     5    1
    17     6    10    1
    18     6     5    1
    19     6    20    1
    20    10    25    1
    21    10    14    1
    22    18     4    1
    23     5     2    1
    24     5     8    1
    25     4     2    1
    26     4     3    1
    27    23     8    1
    28     2    17    1
    29     2     3    1
    30    35    14    1
    31    14     8    1
    32    14    34    1
    33     8    15    1
    34    32    13    1
    35     3    13    1
    36     3    12    1
    37    13    31    1
    38    13    33    1
    39    30    12    1
    40    15    38    1
    41    15    36    1
    42    15    37    1
    43    12    28    1
    44    12    29    1
@<TRIPOS>MOLECULE
11996452_8_run_12.pdb
 42 44 0 0 0
SMALL
GASTEIGER

@<TRIPOS>ATOM
      1    O      -67.2500  -87.1960   -9.8880 O.3     2  LIG2       -0.3886
      2    C      -70.5000  -88.6990   -7.1790 C.3     2  LIG2       -0.0289
      3    C      -71.1190  -88.1400   -5.9020 C.3     2  LIG2       -0.0284
      4    C      -69.6630  -87.8710   -6.1940 C.3     2  LIG2       -0.0319
      5    C      -70.7980  -88.1250   -8.5940 C.3     2  LIG2       -0.0294
      6    C      -69.6010  -87.6280   -9.4780 C.3     2  LIG2       -0.0090
      7    C      -69.1060  -86.5230   -6.6840 C.3     2  LIG2       -0.0468
      8    C      -71.6000  -89.1180   -9.4660 C.3     2  LIG2       -0.0404
      9    C      -68.1460  -87.6510   -8.8840 C.3     2  LIG2        0.0664
     10    C      -69.7840  -88.3290  -10.8430 C.3     2  LIG2       -0.0471
     11    C      -67.9440  -86.6630   -7.6890 C.3     2  LIG2       -0.0237
     12    C      -72.1600  -86.9970   -5.9270 C.3     2  LIG2       -0.0593
     13    C      -71.4270  -89.1620   -4.7920 C.3     2  LIG2       -0.0593
     14    C      -71.2530  -88.7420  -10.9080 C.3     2  LIG2       -0.0498
     15    C      -73.1090  -89.1170   -9.1690 C.3     2  LIG2       -0.0621
     16    C      -67.5920  -89.0610   -8.5410 C.3     2  LIG2       -0.0358
     17    H      -70.2940  -89.7690   -7.2080 H       2  LIG2        0.0312
     18    H      -68.9400  -88.3890   -5.5610 H       2  LIG2        0.0309
     19    H      -71.4310  -87.2470   -8.4800 H       2  LIG2        0.0310
     20    H      -69.7960  -86.5720   -9.6810 H       2  LIG2        0.0331
     21    H      -69.8810  -85.9170   -7.1480 H       2  LIG2        0.0269
     22    H      -68.7660  -85.9460   -5.8230 H       2  LIG2        0.0269
     23    H      -71.2240  -90.1310   -9.3040 H       2  LIG2        0.0301
     24    H      -69.5270  -87.6730  -11.6740 H       2  LIG2        0.0269
     25    H      -69.1510  -89.2110  -10.9290 H       2  LIG2        0.0269
     26    H      -67.7620  -85.6540   -8.0680 H       2  LIG2        0.0293
     27    H      -67.0390  -86.9290   -7.1380 H       2  LIG2        0.0293
     28    H      -72.2030  -86.4960   -4.9590 H       2  LIG2        0.0235
     29    H      -73.1540  -87.3890   -6.1390 H       2  LIG2        0.0235
     30    H      -71.9630  -86.2230   -6.6640 H       2  LIG2        0.0235
     31    H      -71.4300  -88.6870   -3.8100 H       2  LIG2        0.0235
     32    H      -70.6930  -89.9680   -4.7590 H       2  LIG2        0.0235
     33    H      -72.4050  -89.6210   -4.9450 H       2  LIG2        0.0235
     34    H      -71.4060  -89.5720  -11.5980 H       2  LIG2        0.0268
     35    H      -71.8690  -87.9090  -11.2520 H       2  LIG2        0.0268
     36    H      -73.5520  -88.1330   -9.3310 H       2  LIG2        0.0233
     37    H      -73.3040  -89.4010   -8.1340 H       2  LIG2        0.0233
     38    H      -73.6360  -89.8270   -9.8080 H       2  LIG2        0.0233
     39    H      -68.0990  -89.5310   -7.7030 H       2  LIG2        0.0257
     40    H      -66.5380  -89.0180   -8.2610 H       2  LIG2        0.0257
     41    H      -67.6610  -89.7510   -9.3820 H       2  LIG2        0.0257
     42    H      -67.5390  -86.3280  -10.1790 H       2  LIG2        0.2102
@<TRIPOS>BOND
     1    24    10    1
     2    34    14    1
     3    35    14    1
     4    25    10    1
     5    14    10    1
     6    14     8    1
     7    10     6    1
     8    42     1    1
     9     1     9    1
    10    38    15    1
    11    20     6    1
    12     6     9    1
    13     6     5    1
    14     8    23    1
    15     8    15    1
    16     8     5    1
    17    41    16    1
    18    36    15    1
    19    15    37    1
    20     9    16    1
    21     9    11    1
    22     5    19    1
    23     5     2    1
    24    16    40    1
    25    16    39    1
    26    26    11    1
    27    11    27    1
    28    11     7    1
    29    17     2    1
    30     2     4    1
    31     2     3    1
    32    21     7    1
    33     7     4    1
    34     7    22    1
    35    30    12    1
    36     4     3    1
    37     4    18    1
    38    29    12    1
    39    12     3    1
    40    12    28    1
    41     3    13    1
    42    33    13    1
    43    13    32    1
    44    13    31    1
@<TRIPOS>MOLECULE
11996452_4_run_7.pdb
 42 44 0 0 0
SMALL
GASTEIGER

@<TRIPOS>ATOM
      1    O      -70.5390  -86.1590   -8.0990 O.3     2  LIG2       -0.3886
      2    C      -69.8550  -89.9260   -9.4840 C.3     2  LIG2       -0.0289
      3    C      -69.8710  -89.9340  -11.0010 C.3     2  LIG2       -0.0284
      4    C      -71.1340  -89.5650  -10.2520 C.3     2  LIG2       -0.0319
      5    C      -69.1800  -88.8150   -8.6400 C.3     2  LIG2       -0.0294
      6    C      -70.0540  -88.4490   -7.4070 C.3     2  LIG2       -0.0090
      7    C      -71.6960  -88.1290  -10.1520 C.3     2  LIG2       -0.0468
      8    C      -67.7480  -89.1210   -8.1110 C.3     2  LIG2       -0.0404
      9    C      -71.1540  -87.3610   -7.6600 C.3     2  LIG2        0.0664
     10    C      -69.0330  -88.1220   -6.3020 C.3     2  LIG2       -0.0471
     11    C      -72.2060  -87.7580   -8.7400 C.3     2  LIG2       -0.0237
     12    C      -69.0840  -88.8850  -11.8190 C.3     2  LIG2       -0.0593
     13    C      -69.8390  -91.3180  -11.6770 C.3     2  LIG2       -0.0593
     14    C      -67.8430  -89.0340   -6.5810 C.3     2  LIG2       -0.0498
     15    C      -67.1060  -90.4390   -8.5930 C.3     2  LIG2       -0.0621
     16    C      -71.9070  -87.0000   -6.3570 C.3     2  LIG2       -0.0358
     17    H      -69.8700  -90.8840   -8.9620 H       2  LIG2        0.0312
     18    H      -71.9410  -90.2970  -10.2990 H       2  LIG2        0.0309
     19    H      -69.0740  -87.9160   -9.2420 H       2  LIG2        0.0310
     20    H      -70.5730  -89.3510   -7.0740 H       2  LIG2        0.0331
     21    H      -70.9910  -87.3740  -10.4940 H       2  LIG2        0.0269
     22    H      -72.5390  -88.0610  -10.8400 H       2  LIG2        0.0269
     23    H      -67.0890  -88.3150   -8.4380 H       2  LIG2        0.0301
     24    H      -68.7260  -87.0760   -6.3480 H       2  LIG2        0.0269
     25    H      -69.4370  -88.3010   -5.3040 H       2  LIG2        0.0269
     26    H      -72.9300  -86.9470   -8.8430 H       2  LIG2        0.0293
     27    H      -72.7900  -88.6010   -8.3650 H       2  LIG2        0.0293
     28    H      -69.5010  -88.7870  -12.8220 H       2  LIG2        0.0235
     29    H      -68.0410  -89.1860  -11.9250 H       2  LIG2        0.0235
     30    H      -69.0760  -87.8870  -11.3870 H       2  LIG2        0.0235
     31    H      -70.2890  -91.2810  -12.6690 H       2  LIG2        0.0235
     32    H      -70.3840  -92.0680  -11.1010 H       2  LIG2        0.0235
     33    H      -68.8150  -91.6750  -11.7850 H       2  LIG2        0.0235
     34    H      -68.0150  -90.0200   -6.1450 H       2  LIG2        0.0268
     35    H      -66.9280  -88.6390   -6.1370 H       2  LIG2        0.0268
     36    H      -67.6660  -91.3120   -8.2590 H       2  LIG2        0.0233
     37    H      -66.0900  -90.5390   -8.2110 H       2  LIG2        0.0233
     38    H      -67.0480  -90.4730   -9.6820 H       2  LIG2        0.0233
     39    H      -72.4010  -87.8750   -5.9330 H       2  LIG2        0.0257
     40    H      -72.6740  -86.2440   -6.5280 H       2  LIG2        0.0257
     41    H      -71.2370  -86.6020   -5.5940 H       2  LIG2        0.0257
     42    H      -71.2160  -85.4830   -8.1790 H       2  LIG2        0.2102
@<TRIPOS>BOND
     1    28    12    1
     2    31    13    1
     3    29    12    1
     4    12    30    1
     5    12     3    1
     6    33    13    1
     7    13    32    1
     8    13     3    1
     9     3     4    1
    10     3     2    1
    11    22     7    1
    12    21     7    1
    13    18     4    1
    14     4     7    1
    15     4     2    1
    16     7    11    1
    17    38    15    1
    18     2    17    1
    19     2     5    1
    20    19     5    1
    21    26    11    1
    22    11    27    1
    23    11     9    1
    24     5     8    1
    25     5     6    1
    26    15    36    1
    27    15    37    1
    28    15     8    1
    29    23     8    1
    30    42     1    1
    31     8    14    1
    32     1     9    1
    33     9     6    1
    34     9    16    1
    35     6    20    1
    36     6    10    1
    37    14    10    1
    38    14    34    1
    39    14    35    1
    40    40    16    1
    41    16    39    1
    42    16    41    1
    43    24    10    1
    44    10    25    1
@<TRIPOS>MOLECULE
11996452_3_run_10.pdb
 42 44 0 0 0
SMALL
GASTEIGER

@<TRIPOS>ATOM
      1    O      -67.1490  -87.1590   -9.9670 O.3     2  LIG2       -0.3886
      2    C      -71.2620  -87.4610   -8.0000 C.3     2  LIG2       -0.0289
      3    C      -71.6290  -87.7850   -6.5620 C.3     2  LIG2       -0.0284
      4    C      -70.4470  -86.8800   -6.8390 C.3     2  LIG2       -0.0319
      5    C      -70.5940  -88.4770   -8.9620 C.3     2  LIG2       -0.0294
      6    C      -69.4370  -87.8640   -9.7910 C.3     2  LIG2       -0.0090
      7    C      -68.9750  -87.3030   -6.6450 C.3     2  LIG2       -0.0468
      8    C      -71.6000  -89.0730   -9.9840 C.3     2  LIG2       -0.0404
      9    C      -68.0470  -87.7890   -9.0680 C.3     2  LIG2        0.0664
     10    C      -69.4550  -88.6730  -11.1030 C.3     2  LIG2       -0.0471
     11    C      -68.0510  -86.8780   -7.8060 C.3     2  LIG2       -0.0237
     12    C      -72.9010  -87.1140   -6.0110 C.3     2  LIG2       -0.0593
     13    C      -71.4360  -89.2030   -5.9780 C.3     2  LIG2       -0.0593
     14    C      -70.9220  -89.0040  -11.3630 C.3     2  LIG2       -0.0498
     15    C      -72.1030  -90.4790   -9.6100 C.3     2  LIG2       -0.0621
     16    C      -67.4010  -89.1600   -8.7370 C.3     2  LIG2       -0.0358
     17    H      -71.8870  -86.7480   -8.5400 H       2  LIG2        0.0312
     18    H      -70.5870  -85.8300   -6.5770 H       2  LIG2        0.0309
     19    H      -70.1720  -89.3080   -8.4050 H       2  LIG2        0.0310
     20    H      -69.7250  -86.8430  -10.0550 H       2  LIG2        0.0331
     21    H      -68.6170  -86.8130   -5.7380 H       2  LIG2        0.0269
     22    H      -68.8660  -88.3670   -6.4500 H       2  LIG2        0.0269
     23    H      -72.4780  -88.4270  -10.0410 H       2  LIG2        0.0301
     24    H      -69.0240  -88.1120  -11.9330 H       2  LIG2        0.0269
     25    H      -68.8890  -89.6000  -11.0130 H       2  LIG2        0.0269
     26    H      -68.3190  -85.8580   -8.0890 H       2  LIG2        0.0293
     27    H      -67.0330  -86.8100   -7.4120 H       2  LIG2        0.0293
     28    H      -72.8540  -87.0190   -4.9260 H       2  LIG2        0.0235
     29    H      -73.7890  -87.6970   -6.2590 H       2  LIG2        0.0235
     30    H      -73.0470  -86.1130   -6.4180 H       2  LIG2        0.0235
     31    H      -71.3500  -89.1600   -4.8910 H       2  LIG2        0.0235
     32    H      -70.5540  -89.7250   -6.3390 H       2  LIG2        0.0235
     33    H      -72.2930  -89.8350   -6.2130 H       2  LIG2        0.0235
     34    H      -71.0190  -89.9320  -11.9290 H       2  LIG2        0.0268
     35    H      -71.3800  -88.2180  -11.9650 H       2  LIG2        0.0268
     36    H      -71.2820  -91.1950   -9.5580 H       2  LIG2        0.0233
     37    H      -72.8190  -90.8490  -10.3450 H       2  LIG2        0.0233
     38    H      -72.6020  -90.4720   -8.6400 H       2  LIG2        0.0233
     39    H      -68.0300  -89.7720   -8.0920 H       2  LIG2        0.0257
     40    H      -66.4480  -89.0360   -8.2210 H       2  LIG2        0.0257
     41    H      -67.1900  -89.7480   -9.6300 H       2  LIG2        0.0257
     42    H      -67.4930  -86.2870  -10.1790 H       2  LIG2        0.2102
@<TRIPOS>BOND
     1    35    14    1
     2    24    10    1
     3    34    14    1
     4    14    10    1
     5    14     8    1
     6    10    25    1
     7    10     6    1
     8    37    15    1
     9    42     1    1
    10    20     6    1
    11    23     8    1
    12     8    15    1
    13     8     5    1
    14     1     9    1
    15     6     9    1
    16     6     5    1
    17    41    16    1
    18    15    36    1
    19    15    38    1
    20     9    16    1
    21     9    11    1
    22     5    19    1
    23     5     2    1
    24    16    40    1
    25    16    39    1
    26    17     2    1
    27    26    11    1
    28     2     4    1
    29     2     3    1
    30    11    27    1
    31    11     7    1
    32     4     7    1
    33     4    18    1
    34     4     3    1
    35     7    22    1
    36     7    21    1
    37     3    12    1
    38     3    13    1
    39    30    12    1
    40    32    13    1
    41    29    12    1
    42    33    13    1
    43    12    28    1
    44    13    31    1
@<TRIPOS>MOLECULE
11996452_7_run_3.pdb
 42 44 0 0 0
SMALL
GASTEIGER

@<TRIPOS>ATOM
      1    O      -70.5380  -86.1590   -8.0040 O.3     2  LIG2       -0.3886
      2    C      -69.6520  -88.5000   -9.5740 C.3     2  LIG2       -0.0289
      3    C      -70.1410  -89.3410  -10.7460 C.3     2  LIG2       -0.0284
      4    C      -71.0790  -88.3410  -10.1140 C.3     2  LIG2       -0.0319
      5    C      -69.4520  -89.0690   -8.1370 C.3     2  LIG2       -0.0294
      6    C      -70.1250  -88.3070   -6.9420 C.3     2  LIG2       -0.0090
      7    C      -72.2310  -88.6960   -9.1580 C.3     2  LIG2       -0.0468
      8    C      -67.9500  -89.2100   -7.7840 C.3     2  LIG2       -0.0404
      9    C      -71.1720  -87.1720   -7.2390 C.3     2  LIG2        0.0664
     10    C      -68.9530  -87.9000   -6.0270 C.3     2  LIG2       -0.0471
     11    C      -72.4300  -87.6620   -8.0290 C.3     2  LIG2       -0.0237
     12    C      -69.5660  -88.9810  -12.1290 C.3     2  LIG2       -0.0593
     13    C      -70.3990  -90.8600  -10.6170 C.3     2  LIG2       -0.0593
     14    C      -67.8600  -88.9350   -6.2830 C.3     2  LIG2       -0.0498
     15    C      -67.3440  -90.5600   -8.2070 C.3     2  LIG2       -0.0621
     16    C      -71.6570  -86.4780   -5.9420 C.3     2  LIG2       -0.0358
     17    H      -68.9740  -87.6700   -9.7820 H       2  LIG2        0.0312
     18    H      -71.3140  -87.4580  -10.7070 H       2  LIG2        0.0309
     19    H      -69.8800  -90.0690   -8.0950 H       2  LIG2        0.0310
     20    H      -70.6820  -89.0550   -6.3730 H       2  LIG2        0.0331
     21    H      -73.1530  -88.7810   -9.7320 H       2  LIG2        0.0269
     22    H      -72.0880  -89.6750   -8.7030 H       2  LIG2        0.0269
     23    H      -67.3820  -88.4190   -8.2790 H       2  LIG2        0.0301
     24    H      -68.5900  -86.9020   -6.2780 H       2  LIG2        0.0269
     25    H      -69.2380  -87.8870   -4.9750 H       2  LIG2        0.0269
     26    H      -72.9680  -86.8010   -8.4290 H       2  LIG2        0.0293
     27    H      -73.1240  -88.1220   -7.3240 H       2  LIG2        0.0293
     28    H      -70.2490  -89.2730  -12.9260 H       2  LIG2        0.0235
     29    H      -68.6140  -89.4840  -12.3000 H       2  LIG2        0.0235
     30    H      -69.3880  -87.9090  -12.2330 H       2  LIG2        0.0235
     31    H      -71.0750  -91.2010  -11.4010 H       2  LIG2        0.0235
     32    H      -70.8450  -91.1650   -9.6730 H       2  LIG2        0.0235
     33    H      -69.4670  -91.4180  -10.7210 H       2  LIG2        0.0235
     34    H      -68.0510  -89.8430   -5.7060 H       2  LIG2        0.0268
     35    H      -66.8790  -88.5590   -5.9900 H       2  LIG2        0.0268
     36    H      -67.8550  -91.3980   -7.7290 H       2  LIG2        0.0233
     37    H      -66.2890  -90.6190   -7.9360 H       2  LIG2        0.0233
     38    H      -67.4140  -90.7010   -9.2860 H       2  LIG2        0.0233
     39    H      -72.1160  -87.1920   -5.2590 H       2  LIG2        0.0257
     40    H      -72.3970  -85.7040   -6.1520 H       2  LIG2        0.0257
     41    H      -70.8400  -85.9950   -5.4050 H       2  LIG2        0.0257
     42    H      -71.1710  -85.4540   -8.1570 H       2  LIG2        0.2102
@<TRIPOS>BOND
     1    28    12    1
     2    29    12    1
     3    30    12    1
     4    12     3    1
     5    31    13    1
     6     3    13    1
     7     3     4    1
     8     3     2    1
     9    33    13    1
    10    18     4    1
    11    13    32    1
    12     4     2    1
    13     4     7    1
    14    17     2    1
    15    21     7    1
    16     2     5    1
    17    38    15    1
    18     7    22    1
    19     7    11    1
    20    26    11    1
    21    23     8    1
    22    15    37    1
    23    15     8    1
    24    15    36    1
    25    42     1    1
    26     5    19    1
    27     5     8    1
    28     5     6    1
    29    11    27    1
    30    11     9    1
    31     1     9    1
    32     8    14    1
    33     9     6    1
    34     9    16    1
    35     6    20    1
    36     6    10    1
    37    14    10    1
    38    14    35    1
    39    14    34    1
    40    24    10    1
    41    40    16    1
    42    10    25    1
    43    16    41    1
    44    16    39    1
@<TRIPOS>MOLECULE
11996452_11_run_12.pdb
 42 44 0 0 0
SMALL
GASTEIGER

@<TRIPOS>ATOM
      1    O      -67.1490  -87.1590   -9.9720 O.3     2  LIG2       -0.3886
      2    C      -71.2460  -87.4620   -7.9880 C.3     2  LIG2       -0.0289
      3    C      -71.6260  -87.6830   -6.5360 C.3     2  LIG2       -0.0284
      4    C      -70.4360  -86.8060   -6.8610 C.3     2  LIG2       -0.0319
      5    C      -70.5430  -88.5290   -8.8660 C.3     2  LIG2       -0.0294
      6    C      -69.4310  -87.8810   -9.7330 C.3     2  LIG2       -0.0090
      7    C      -68.9640  -87.2230   -6.6320 C.3     2  LIG2       -0.0468
      8    C      -71.4560  -89.3360   -9.8360 C.3     2  LIG2       -0.0404
      9    C      -68.0260  -87.7810   -9.0470 C.3     2  LIG2        0.0664
     10    C      -69.4870  -88.6350  -11.0740 C.3     2  LIG2       -0.0471
     11    C      -68.0180  -86.8490   -7.7970 C.3     2  LIG2       -0.0237
     12    C      -72.9020  -86.9720   -6.0470 C.3     2  LIG2       -0.0593
     13    C      -71.4520  -89.0650   -5.8620 C.3     2  LIG2       -0.0593
     14    C      -70.9580  -89.0030  -11.2480 C.3     2  LIG2       -0.0498
     15    C      -72.9770  -89.1360   -9.6730 C.3     2  LIG2       -0.0621
     16    C      -67.3630  -89.1410   -8.7080 C.3     2  LIG2       -0.0358
     17    H      -71.8590  -86.7830   -8.5840 H       2  LIG2        0.0312
     18    H      -70.5710  -85.7390   -6.6740 H       2  LIG2        0.0309
     19    H      -70.0770  -89.2730   -8.2260 H       2  LIG2        0.0310
     20    H      -69.7390  -86.8580   -9.9650 H       2  LIG2        0.0331
     21    H      -68.6170  -86.7020   -5.7400 H       2  LIG2        0.0269
     22    H      -68.8590  -88.2800   -6.3970 H       2  LIG2        0.0269
     23    H      -71.2640  -90.3990   -9.6720 H       2  LIG2        0.0301
     24    H      -69.1320  -88.0210  -11.9030 H       2  LIG2        0.0269
     25    H      -68.8800  -89.5390  -11.0550 H       2  LIG2        0.0269
     26    H      -68.2630  -85.8280   -8.1010 H       2  LIG2        0.0293
     27    H      -67.0040  -86.7950   -7.3990 H       2  LIG2        0.0293
     28    H      -72.8670  -86.7990   -4.9720 H       2  LIG2        0.0235
     29    H      -73.7890  -87.5690   -6.2630 H       2  LIG2        0.0235
     30    H      -73.0410  -86.0020   -6.5270 H       2  LIG2        0.0235
     31    H      -71.3950  -88.9590   -4.7790 H       2  LIG2        0.0235
     32    H      -70.5630  -89.6090   -6.1690 H       2  LIG2        0.0235
     33    H      -72.3030  -89.7080   -6.0850 H       2  LIG2        0.0235
     34    H      -71.0780  -89.8430  -11.9330 H       2  LIG2        0.0268
     35    H      -71.5110  -88.1600  -11.6680 H       2  LIG2        0.0268
     36    H      -73.2790  -88.1090   -9.8820 H       2  LIG2        0.0233
     37    H      -73.3010  -89.3820   -8.6620 H       2  LIG2        0.0233
     38    H      -73.5300  -89.7810  -10.3580 H       2  LIG2        0.0233
     39    H      -67.9420  -89.7220   -7.9910 H       2  LIG2        0.0257
     40    H      -66.3730  -89.0020   -8.2690 H       2  LIG2        0.0257
     41    H      -67.2230  -89.7640   -9.5900 H       2  LIG2        0.0257
     42    H      -67.4940  -86.2870  -10.1790 H       2  LIG2        0.2102
@<TRIPOS>BOND
     1    34    14    1
     2    24    10    1
     3    35    14    1
     4    14    10    1
     5    14     8    1
     6    10    25    1
     7    10     6    1
     8    38    15    1
     9    42     1    1
    10     1     9    1
    11    20     6    1
    12    36    15    1
    13     8    15    1
    14     8    23    1
    15     8     5    1
    16     6     9    1
    17     6     5    1
    18    15    37    1
    19    41    16    1
    20     9    16    1
    21     9    11    1
    22     5    19    1
    23     5     2    1
    24    16    40    1
    25    16    39    1
    26    17     2    1
    27    26    11    1
    28     2     4    1
    29     2     3    1
    30    11    27    1
    31    11     7    1
    32     4    18    1
    33     4     7    1
    34     4     3    1
    35     7    22    1
    36     7    21    1
    37     3    12    1
    38     3    13    1
    39    30    12    1
    40    29    12    1
    41    32    13    1
    42    33    13    1
    43    12    28    1
    44    13    31    1
@<TRIPOS>MOLECULE
11996452_run_17.pdb
 42 44 0 0 0
SMALL
GASTEIGER

@<TRIPOS>ATOM
      1    O      -67.0610  -87.1590   -9.9100 O.3     2  LIG2       -0.3886
      2    C      -70.6490  -89.1330   -8.1580 C.3     2  LIG2       -0.0289
      3    C      -71.5350  -88.8510   -6.9510 C.3     2  LIG2       -0.0284
      4    C      -70.0870  -88.4240   -6.9150 C.3     2  LIG2       -0.0319
      5    C      -70.7360  -88.3300   -9.4890 C.3     2  LIG2       -0.0294
      6    C      -69.3610  -87.8820  -10.0880 C.3     2  LIG2       -0.0090
      7    C      -69.5930  -86.9760   -7.0990 C.3     2  LIG2       -0.0468
      8    C      -71.4370  -89.0970  -10.6360 C.3     2  LIG2       -0.0404
      9    C      -68.0960  -87.7750   -9.1570 C.3     2  LIG2        0.0664
     10    C      -69.1790  -88.7020  -11.3910 C.3     2  LIG2       -0.0471
     11    C      -68.2820  -86.8530   -7.9060 C.3     2  LIG2       -0.0237
     12    C      -72.6740  -87.8050   -6.9950 C.3     2  LIG2       -0.0593
     13    C      -71.9230  -90.0700   -6.0940 C.3     2  LIG2       -0.0593
     14    C      -70.2920  -89.7490  -11.4120 C.3     2  LIG2       -0.0498
     15    C      -72.5590  -90.0720  -10.2240 C.3     2  LIG2       -0.0621
     16    C      -67.4620  -89.1350   -8.7480 C.3     2  LIG2       -0.0358
     17    H      -70.3260  -90.1610   -8.3220 H       2  LIG2        0.0312
     18    H      -69.4410  -88.9810   -6.2360 H       2  LIG2        0.0309
     19    H      -71.3240  -87.4300   -9.3150 H       2  LIG2        0.0310
     20    H      -69.5360  -86.8570  -10.4260 H       2  LIG2        0.0331
     21    H      -70.3460  -86.3560   -7.5800 H       2  LIG2        0.0269
     22    H      -69.4490  -86.5260   -6.1150 H       2  LIG2        0.0269
     23    H      -71.9000  -88.3590  -11.2960 H       2  LIG2        0.0301
     24    H      -69.2780  -88.0450  -12.2560 H       2  LIG2        0.0269
     25    H      -68.2000  -89.1720  -11.4840 H       2  LIG2        0.0269
     26    H      -68.2180  -85.8050   -8.2100 H       2  LIG2        0.0293
     27    H      -67.4460  -87.0020   -7.2200 H       2  LIG2        0.0293
     28    H      -72.9280  -87.4750   -5.9860 H       2  LIG2        0.0235
     29    H      -73.5730  -88.2340   -7.4350 H       2  LIG2        0.0235
     30    H      -72.4430  -86.9070   -7.5620 H       2  LIG2        0.0235
     31    H      -72.1490  -89.7740   -5.0700 H       2  LIG2        0.0235
     32    H      -71.1240  -90.8120   -6.0490 H       2  LIG2        0.0235
     33    H      -72.8030  -90.5690   -6.5010 H       2  LIG2        0.0235
     34    H      -69.9640  -90.6650  -10.9180 H       2  LIG2        0.0268
     35    H      -70.5810  -90.0080  -12.4310 H       2  LIG2        0.0268
     36    H      -72.1850  -90.9020   -9.6250 H       2  LIG2        0.0233
     37    H      -73.0440  -90.4970  -11.1040 H       2  LIG2        0.0233
     38    H      -73.3280  -89.5600   -9.6440 H       2  LIG2        0.0233
     39    H      -68.1050  -89.7420   -8.1180 H       2  LIG2        0.0257
     40    H      -66.5390  -88.9900   -8.1830 H       2  LIG2        0.0257
     41    H      -67.2000  -89.7490   -9.6080 H       2  LIG2        0.0257
     42    H      -67.3590  -86.2870  -10.1770 H       2  LIG2        0.2102
@<TRIPOS>BOND
     1    35    14    1
     2    24    10    1
     3    25    10    1
     4    14    10    1
     5    14    34    1
     6    14     8    1
     7    10     6    1
     8    23     8    1
     9    37    15    1
    10     8    15    1
    11     8     5    1
    12    20     6    1
    13    15    38    1
    14    15    36    1
    15    42     1    1
    16     6     5    1
    17     6     9    1
    18     1     9    1
    19    41    16    1
    20     5    19    1
    21     5     2    1
    22     9    16    1
    23     9    11    1
    24    16    40    1
    25    16    39    1
    26    17     2    1
    27    26    11    1
    28     2     3    1
    29     2     4    1
    30    11    27    1
    31    11     7    1
    32    21     7    1
    33    30    12    1
    34    29    12    1
    35     7     4    1
    36     7    22    1
    37    12     3    1
    38    12    28    1
    39     3     4    1
    40     3    13    1
    41     4    18    1
    42    33    13    1
    43    13    32    1
    44    13    31    1
