@<TRIPOS>MOLECULE
11996452_8_run_12.pdb
 42 44 0 0 0
SMALL
GASTEIGER

@<TRIPOS>ATOM
      1    O      -67.2500  -87.1960   -9.8880 O.3     2  LIG2       -0.3886
      2    C      -70.5000  -88.6990   -7.1790 C.3     2  LIG2       -0.0289
      3    C      -71.1190  -88.1400   -5.9020 C.3     2  LIG2       -0.0284
      4    C      -69.6630  -87.8710   -6.1940 C.3     2  LIG2       -0.0319
      5    C      -70.7980  -88.1250   -8.5940 C.3     2  LIG2       -0.0294
      6    C      -69.6010  -87.6280   -9.4780 C.3     2  LIG2       -0.0090
      7    C      -69.1060  -86.5230   -6.6840 C.3     2  LIG2       -0.0468
      8    C      -71.6000  -89.1180   -9.4660 C.3     2  LIG2       -0.0404
      9    C      -68.1460  -87.6510   -8.8840 C.3     2  LIG2        0.0664
     10    C      -69.7840  -88.3290  -10.8430 C.3     2  LIG2       -0.0471
     11    C      -67.9440  -86.6630   -7.6890 C.3     2  LIG2       -0.0237
     12    C      -72.1600  -86.9970   -5.9270 C.3     2  LIG2       -0.0593
     13    C      -71.4270  -89.1620   -4.7920 C.3     2  LIG2       -0.0593
     14    C      -71.2530  -88.7420  -10.9080 C.3     2  LIG2       -0.0498
     15    C      -73.1090  -89.1170   -9.1690 C.3     2  LIG2       -0.0621
     16    C      -67.5920  -89.0610   -8.5410 C.3     2  LIG2       -0.0358
     17    H      -70.2940  -89.7690   -7.2080 H       2  LIG2        0.0312
     18    H      -68.9400  -88.3890   -5.5610 H       2  LIG2        0.0309
     19    H      -71.4310  -87.2470   -8.4800 H       2  LIG2        0.0310
     20    H      -69.7960  -86.5720   -9.6810 H       2  LIG2        0.0331
     21    H      -69.8810  -85.9170   -7.1480 H       2  LIG2        0.0269
     22    H      -68.7660  -85.9460   -5.8230 H       2  LIG2        0.0269
     23    H      -71.2240  -90.1310   -9.3040 H       2  LIG2        0.0301
     24    H      -69.5270  -87.6730  -11.6740 H       2  LIG2        0.0269
     25    H      -69.1510  -89.2110  -10.9290 H       2  LIG2        0.0269
     26    H      -67.7620  -85.6540   -8.0680 H       2  LIG2        0.0293
     27    H      -67.0390  -86.9290   -7.1380 H       2  LIG2        0.0293
     28    H      -72.2030  -86.4960   -4.9590 H       2  LIG2        0.0235
     29    H      -73.1540  -87.3890   -6.1390 H       2  LIG2        0.0235
     30    H      -71.9630  -86.2230   -6.6640 H       2  LIG2        0.0235
     31    H      -71.4300  -88.6870   -3.8100 H       2  LIG2        0.0235
     32    H      -70.6930  -89.9680   -4.7590 H       2  LIG2        0.0235
     33    H      -72.4050  -89.6210   -4.9450 H       2  LIG2        0.0235
     34    H      -71.4060  -89.5720  -11.5980 H       2  LIG2        0.0268
     35    H      -71.8690  -87.9090  -11.2520 H       2  LIG2        0.0268
     36    H      -73.5520  -88.1330   -9.3310 H       2  LIG2        0.0233
     37    H      -73.3040  -89.4010   -8.1340 H       2  LIG2        0.0233
     38    H      -73.6360  -89.8270   -9.8080 H       2  LIG2        0.0233
     39    H      -68.0990  -89.5310   -7.7030 H       2  LIG2        0.0257
     40    H      -66.5380  -89.0180   -8.2610 H       2  LIG2        0.0257
     41    H      -67.6610  -89.7510   -9.3820 H       2  LIG2        0.0257
     42    H      -67.5390  -86.3280  -10.1790 H       2  LIG2        0.2102
@<TRIPOS>BOND
     1    24    10    1
     2    34    14    1
     3    35    14    1
     4    25    10    1
     5    14    10    1
     6    14     8    1
     7    10     6    1
     8    42     1    1
     9     1     9    1
    10    38    15    1
    11    20     6    1
    12     6     9    1
    13     6     5    1
    14     8    23    1
    15     8    15    1
    16     8     5    1
    17    41    16    1
    18    36    15    1
    19    15    37    1
    20     9    16    1
    21     9    11    1
    22     5    19    1
    23     5     2    1
    24    16    40    1
    25    16    39    1
    26    26    11    1
    27    11    27    1
    28    11     7    1
    29    17     2    1
    30     2     4    1
    31     2     3    1
    32    21     7    1
    33     7     4    1
    34     7    22    1
    35    30    12    1
    36     4     3    1
    37     4    18    1
    38    29    12    1
    39    12     3    1
    40    12    28    1
    41     3    13    1
    42    33    13    1
    43    13    32    1
    44    13    31    1
@<TRIPOS>MOLECULE
11996452_8_run_2.pdb
 42 44 0 0 0
SMALL
GASTEIGER

@<TRIPOS>ATOM
      1    O      -72.5610  -89.0020  -11.9290 O.3     2  LIG2       -0.3886
      2    C      -69.5710  -89.2890   -8.5900 C.3     2  LIG2       -0.0289
      3    C      -68.0860  -88.9550   -8.5050 C.3     2  LIG2       -0.0284
      4    C      -68.6550  -89.4470   -9.8130 C.3     2  LIG2       -0.0319
      5    C      -70.6900  -88.2080   -8.6130 C.3     2  LIG2       -0.0294
      6    C      -71.6970  -88.1840   -9.8150 C.3     2  LIG2       -0.0090
      7    C      -68.9320  -88.5540  -11.0350 C.3     2  LIG2       -0.0468
      8    C      -71.5480  -88.2340   -7.3270 C.3     2  LIG2       -0.0404
      9    C      -71.5050  -89.1990  -10.9990 C.3     2  LIG2        0.0664
     10    C      -73.1010  -88.1590   -9.1690 C.3     2  LIG2       -0.0471
     11    C      -70.1960  -88.9580  -11.8220 C.3     2  LIG2       -0.0237
     12    C      -67.5800  -87.5010   -8.3540 C.3     2  LIG2       -0.0593
     13    C      -67.2110  -89.9430   -7.7120 C.3     2  LIG2       -0.0593
     14    C      -72.8980  -87.6480   -7.7440 C.3     2  LIG2       -0.0498
     15    C      -70.8960  -87.5070   -6.1380 C.3     2  LIG2       -0.0621
     16    C      -71.6550  -90.6980  -10.6190 C.3     2  LIG2       -0.0358
     17    H      -69.9040  -90.2110   -8.1140 H       2  LIG2        0.0312
     18    H      -68.3630  -90.4530  -10.1170 H       2  LIG2        0.0309
     19    H      -70.2170  -87.2280   -8.6380 H       2  LIG2        0.0310
     20    H      -71.5890  -87.2000  -10.2790 H       2  LIG2        0.0331
     21    H      -69.0320  -87.5090  -10.7500 H       2  LIG2        0.0269
     22    H      -68.0690  -88.5890  -11.7020 H       2  LIG2        0.0269
     23    H      -71.7300  -89.2700   -7.0310 H       2  LIG2        0.0301
     24    H      -73.7890  -87.5160   -9.7190 H       2  LIG2        0.0269
     25    H      -73.5490  -89.1510   -9.1430 H       2  LIG2        0.0269
     26    H      -70.3570  -88.1570  -12.5480 H       2  LIG2        0.0293
     27    H      -69.9660  -89.8430  -12.4180 H       2  LIG2        0.0293
     28    H      -66.5410  -87.4220   -8.6750 H       2  LIG2        0.0235
     29    H      -67.6260  -87.1850   -7.3120 H       2  LIG2        0.0235
     30    H      -68.1360  -86.7670   -8.9310 H       2  LIG2        0.0235
     31    H      -66.1740  -89.9100   -8.0510 H       2  LIG2        0.0235
     32    H      -67.5530  -90.9730   -7.8190 H       2  LIG2        0.0235
     33    H      -67.2220  -89.7080   -6.6470 H       2  LIG2        0.0235
     34    H      -73.7070  -87.9670   -7.0860 H       2  LIG2        0.0268
     35    H      -72.8710  -86.5570   -7.7300 H       2  LIG2        0.0268
     36    H      -70.7040  -86.4570   -6.3630 H       2  LIG2        0.0233
     37    H      -69.9430  -87.9680   -5.8730 H       2  LIG2        0.0233
     38    H      -71.5350  -87.5460   -5.2560 H       2  LIG2        0.0233
     39    H      -70.8550  -91.0630   -9.9820 H       2  LIG2        0.0257
     40    H      -71.6430  -91.3370  -11.5040 H       2  LIG2        0.0257
     41    H      -72.5920  -90.9040  -10.1020 H       2  LIG2        0.0257
     42    H      -72.7340  -88.0590  -11.9920 H       2  LIG2        0.2102
@<TRIPOS>BOND
     1    26    11    1
     2    27    11    1
     3    42     1    1
     4     1     9    1
     5    11     7    1
     6    11     9    1
     7    22     7    1
     8    40    16    1
     9     7    21    1
    10     7     4    1
    11     9    16    1
    12     9     6    1
    13    16    41    1
    14    16    39    1
    15    20     6    1
    16    18     4    1
    17     6    10    1
    18     6     5    1
    19     4     2    1
    20     4     3    1
    21    24    10    1
    22    10    25    1
    23    10    14    1
    24    30    12    1
    25    28    12    1
    26    19     5    1
    27     5     2    1
    28     5     8    1
    29     2     3    1
    30     2    17    1
    31     3    12    1
    32     3    13    1
    33    12    29    1
    34    31    13    1
    35    32    13    1
    36    14    35    1
    37    14     8    1
    38    14    34    1
    39    13    33    1
    40     8    23    1
    41     8    15    1
    42    36    15    1
    43    15    37    1
    44    15    38    1
@<TRIPOS>MOLECULE
11996452_8_run_10.pdb
 42 44 0 0 0
SMALL
GASTEIGER

@<TRIPOS>ATOM
      1    O      -71.7930  -90.7570  -11.4350 O.3     2  LIG2       -0.3886
      2    C      -71.3500  -87.8220   -8.0650 C.3     2  LIG2       -0.0289
      3    C      -71.7040  -87.8920   -6.5840 C.3     2  LIG2       -0.0284
      4    C      -72.5560  -88.6380   -7.5800 C.3     2  LIG2       -0.0319
      5    C      -70.1310  -88.5630   -8.6880 C.3     2  LIG2       -0.0294
      6    C      -70.3760  -89.5660   -9.8670 C.3     2  LIG2       -0.0090
      7    C      -72.5210  -90.1620   -7.7910 C.3     2  LIG2       -0.0468
      8    C      -69.0400  -87.5800   -9.1720 C.3     2  LIG2       -0.0404
      9    C      -71.8470  -89.8560  -10.3380 C.3     2  LIG2        0.0664
     10    C      -69.3850  -89.1430  -10.9750 C.3     2  LIG2       -0.0471
     11    C      -72.7140  -90.5880   -9.2610 C.3     2  LIG2       -0.0237
     12    C      -70.8230  -88.6510   -5.5640 C.3     2  LIG2       -0.0593
     13    C      -72.3100  -86.6170   -5.9680 C.3     2  LIG2       -0.0593
     14    C      -68.2950  -88.3340  -10.2750 C.3     2  LIG2       -0.0498
     15    C      -68.1290  -87.0680   -8.0430 C.3     2  LIG2       -0.0621
     16    C      -72.6060  -88.6370  -10.9290 C.3     2  LIG2       -0.0358
     17    H      -71.5740  -86.8930   -8.5900 H       2  LIG2        0.0312
     18    H      -73.5580  -88.2390   -7.7530 H       2  LIG2        0.0309
     19    H      -69.6670  -89.1680   -7.9110 H       2  LIG2        0.0310
     20    H      -70.0050  -90.5350   -9.5200 H       2  LIG2        0.0331
     21    H      -71.5870  -90.5910   -7.4350 H       2  LIG2        0.0269
     22    H      -73.3000  -90.6220   -7.1800 H       2  LIG2        0.0269
     23    H      -69.5130  -86.7150   -9.6430 H       2  LIG2        0.0301
     24    H      -68.9590  -90.0050  -11.4900 H       2  LIG2        0.0269
     25    H      -69.8680  -88.5290  -11.7330 H       2  LIG2        0.0269
     26    H      -72.5070  -91.6610   -9.2840 H       2  LIG2        0.0293
     27    H      -73.7730  -90.4950   -9.5130 H       2  LIG2        0.0293
     28    H      -71.3980  -88.9020   -4.6730 H       2  LIG2        0.0235
     29    H      -69.9830  -88.0330   -5.2500 H       2  LIG2        0.0235
     30    H      -70.4060  -89.5840   -5.9340 H       2  LIG2        0.0235
     31    H      -72.9270  -86.8540   -5.1000 H       2  LIG2        0.0235
     32    H      -72.9420  -86.0780   -6.6760 H       2  LIG2        0.0235
     33    H      -71.5270  -85.9290   -5.6460 H       2  LIG2        0.0235
     34    H      -67.7900  -87.6590  -10.9670 H       2  LIG2        0.0268
     35    H      -67.5390  -88.9970   -9.8500 H       2  LIG2        0.0268
     36    H      -67.6100  -87.8860   -7.5420 H       2  LIG2        0.0233
     37    H      -68.7050  -86.5300   -7.2890 H       2  LIG2        0.0233
     38    H      -67.3740  -86.3830   -8.4290 H       2  LIG2        0.0233
     39    H      -72.8360  -87.8730  -10.1910 H       2  LIG2        0.0257
     40    H      -73.5660  -88.9330  -11.3550 H       2  LIG2        0.0257
     41    H      -72.0500  -88.1490  -11.7290 H       2  LIG2        0.0257
     42    H      -71.2850  -91.5260  -11.1680 H       2  LIG2        0.2102
@<TRIPOS>BOND
     1    25    10    1
     2    41    16    1
     3    24    10    1
     4     1    42    1
     5     1     9    1
     6    40    16    1
     7    10    14    1
     8    10     6    1
     9    34    14    1
    10    16     9    1
    11    16    39    1
    12     9     6    1
    13     9    11    1
    14    14    35    1
    15    14     8    1
    16     6    20    1
    17     6     5    1
    18    23     8    1
    19    27    11    1
    20    26    11    1
    21    11     7    1
    22     8     5    1
    23     8    15    1
    24     5     2    1
    25     5    19    1
    26    17     2    1
    27    38    15    1
    28     2     4    1
    29     2     3    1
    30    15    36    1
    31    15    37    1
    32     7     4    1
    33     7    21    1
    34     7    22    1
    35    18     4    1
    36     4     3    1
    37    32    13    1
    38     3    13    1
    39     3    12    1
    40    13    33    1
    41    13    31    1
    42    30    12    1
    43    12    29    1
    44    12    28    1
@<TRIPOS>MOLECULE
11996452_8_run_5.pdb
 42 44 0 0 0
SMALL
GASTEIGER

@<TRIPOS>ATOM
      1    O      -60.4920  -81.5190  -13.6810 O.3     2  LIG2       -0.3886
      2    C      -63.5290  -78.2710  -13.0550 C.3     2  LIG2       -0.0289
      3    C      -64.3550  -77.8510  -11.8440 C.3     2  LIG2       -0.0284
      4    C      -63.9960  -79.3060  -12.0210 C.3     2  LIG2       -0.0319
      5    C      -62.0090  -77.9710  -13.1980 C.3     2  LIG2       -0.0294
      6    C      -61.0180  -79.1650  -13.4220 C.3     2  LIG2       -0.0090
      7    C      -62.9170  -80.0440  -11.2090 C.3     2  LIG2       -0.0468
      8    C      -61.7230  -76.9510  -14.3250 C.3     2  LIG2       -0.0404
      9    C      -61.5730  -80.6360  -13.4180 C.3     2  LIG2        0.0664
     10    C      -60.1700  -78.7670  -14.6510 C.3     2  LIG2       -0.0471
     11    C      -62.1320  -81.0890  -12.0290 C.3     2  LIG2       -0.0237
     12    C      -63.7530  -77.0180  -10.6890 C.3     2  LIG2       -0.0593
     13    C      -65.8180  -77.4580  -12.1220 C.3     2  LIG2       -0.0593
     14    C      -60.2890  -77.2490  -14.7670 C.3     2  LIG2       -0.0498
     15    C      -61.9530  -75.4900  -13.9040 C.3     2  LIG2       -0.0621
     16    C      -62.5750  -80.9690  -14.5580 C.3     2  LIG2       -0.0358
     17    H      -64.0330  -78.2920  -14.0210 H       2  LIG2        0.0312
     18    H      -64.8150  -79.9760  -12.2890 H       2  LIG2        0.0309
     19    H      -61.6660  -77.5040  -12.2770 H       2  LIG2        0.0310
     20    H      -60.3180  -79.1360  -12.5820 H       2  LIG2        0.0331
     21    H      -62.2010  -79.3490  -10.7760 H       2  LIG2        0.0269
     22    H      -63.3900  -80.5380  -10.3590 H       2  LIG2        0.0269
     23    H      -62.3690  -77.1630  -15.1800 H       2  LIG2        0.0301
     24    H      -59.1290  -79.0690  -14.5410 H       2  LIG2        0.0269
     25    H      -60.5400  -79.2350  -15.5620 H       2  LIG2        0.0269
     26    H      -61.3100  -81.4090  -11.3850 H       2  LIG2        0.0293
     27    H      -62.7600  -81.9740  -12.1540 H       2  LIG2        0.0293
     28    H      -64.3490  -77.1310   -9.7830 H       2  LIG2        0.0235
     29    H      -63.7420  -75.9590  -10.9460 H       2  LIG2        0.0235
     30    H      -62.7340  -77.2860  -10.4220 H       2  LIG2        0.0235
     31    H      -66.4400  -77.6080  -11.2380 H       2  LIG2        0.0235
     32    H      -66.2560  -78.0470  -12.9290 H       2  LIG2        0.0235
     33    H      -65.8930  -76.4090  -12.4100 H       2  LIG2        0.0235
     34    H      -60.0930  -76.9090  -15.7840 H       2  LIG2        0.0268
     35    H      -59.5690  -76.7580  -14.1100 H       2  LIG2        0.0268
     36    H      -61.3200  -75.2070  -13.0610 H       2  LIG2        0.0233
     37    H      -62.9900  -75.3260  -13.6080 H       2  LIG2        0.0233
     38    H      -61.7360  -74.8060  -14.7250 H       2  LIG2        0.0233
     39    H      -63.5260  -80.4530  -14.4600 H       2  LIG2        0.0257
     40    H      -62.8170  -82.0330  -14.5770 H       2  LIG2        0.0257
     41    H      -62.1810  -80.7230  -15.5430 H       2  LIG2        0.0257
     42    H      -60.8290  -82.4180  -13.6790 H       2  LIG2        0.2102
@<TRIPOS>BOND
     1    34    14    1
     2    25    10    1
     3    41    16    1
     4    23     8    1
     5    14    10    1
     6    14     8    1
     7    14    35    1
     8    38    15    1
     9    10    24    1
    10    10     6    1
    11    40    16    1
    12    16    39    1
    13    16     9    1
    14     8    15    1
    15     8     5    1
    16    17     2    1
    17    15    37    1
    18    15    36    1
    19     1    42    1
    20     1     9    1
    21     6     9    1
    22     6     5    1
    23     6    20    1
    24     9    11    1
    25     5     2    1
    26     5    19    1
    27     2     4    1
    28     2     3    1
    29    32    13    1
    30    33    13    1
    31    18     4    1
    32    27    11    1
    33    13     3    1
    34    13    31    1
    35    11    26    1
    36    11     7    1
    37     4     3    1
    38     4     7    1
    39     3    12    1
    40     7    21    1
    41     7    22    1
    42    29    12    1
    43    12    30    1
    44    12    28    1
@<TRIPOS>MOLECULE
11996452_8_run_6.pdb
 42 44 0 0 0
SMALL
GASTEIGER

@<TRIPOS>ATOM
      1    O      -66.5390  -89.4130   -8.3350 O.3     2  LIG2       -0.3886
      2    C      -70.8140  -88.0940   -8.7200 C.3     2  LIG2       -0.0289
      3    C      -72.1110  -88.8590   -8.9610 C.3     2  LIG2       -0.0284
      4    C      -70.8300  -89.3750   -9.5670 C.3     2  LIG2       -0.0319
      5    C      -70.0640  -88.0930   -7.3570 C.3     2  LIG2       -0.0294
      6    C      -68.5680  -88.5630   -7.3140 C.3     2  LIG2       -0.0090
      7    C      -70.0430  -90.5890   -9.0430 C.3     2  LIG2       -0.0468
      8    C      -70.1030  -86.7060   -6.6740 C.3     2  LIG2       -0.0404
      9    C      -67.8920  -89.0950   -8.6300 C.3     2  LIG2        0.0664
     10    C      -67.8090  -87.4400   -6.5710 C.3     2  LIG2       -0.0471
     11    C      -68.5130  -90.4310   -9.1550 C.3     2  LIG2       -0.0237
     12    C      -72.8270  -89.6360   -7.8310 C.3     2  LIG2       -0.0593
     13    C      -73.1200  -88.2020   -9.9220 C.3     2  LIG2       -0.0593
     14    C      -68.8660  -86.6760   -5.7760 C.3     2  LIG2       -0.0498
     15    C      -71.4200  -86.4250   -5.9290 C.3     2  LIG2       -0.0621
     16    C      -67.7600  -88.0530   -9.7750 C.3     2  LIG2       -0.0358
     17    H      -70.6770  -87.1590   -9.2620 H       2  LIG2        0.0312
     18    H      -70.7370  -89.2830  -10.6500 H       2  LIG2        0.0309
     19    H      -70.5800  -88.7740   -6.6830 H       2  LIG2        0.0310
     20    H      -68.5400  -89.4150   -6.6300 H       2  LIG2        0.0331
     21    H      -70.2850  -90.8010   -8.0030 H       2  LIG2        0.0269
     22    H      -70.3520  -91.4770   -9.5970 H       2  LIG2        0.0269
     23    H      -69.9680  -85.9260   -7.4270 H       2  LIG2        0.0301
     24    H      -67.0390  -87.8390   -5.9120 H       2  LIG2        0.0269
     25    H      -67.3120  -86.7650   -7.2660 H       2  LIG2        0.0269
     26    H      -68.0900  -91.2770   -8.6080 H       2  LIG2        0.0293
     27    H      -68.2230  -90.5890  -10.1960 H       2  LIG2        0.0293
     28    H      -73.4930  -90.3920   -8.2480 H       2  LIG2        0.0235
     29    H      -73.4330  -88.9620   -7.2270 H       2  LIG2        0.0235
     30    H      -72.1610  -90.1570   -7.1490 H       2  LIG2        0.0235
     31    H      -73.7660  -88.9500  -10.3840 H       2  LIG2        0.0235
     32    H      -72.6250  -87.6590  -10.7280 H       2  LIG2        0.0235
     33    H      -73.7550  -87.4900   -9.3940 H       2  LIG2        0.0235
     34    H      -68.5420  -85.6580   -5.5550 H       2  LIG2        0.0268
     35    H      -69.0620  -87.1730   -4.8250 H       2  LIG2        0.0268
     36    H      -71.6050  -87.1620   -5.1460 H       2  LIG2        0.0233
     37    H      -72.2690  -86.4480   -6.6130 H       2  LIG2        0.0233
     38    H      -71.4030  -85.4410   -5.4600 H       2  LIG2        0.0233
     39    H      -68.7130  -87.7650  -10.2070 H       2  LIG2        0.0257
     40    H      -67.1670  -88.4450  -10.6030 H       2  LIG2        0.0257
     41    H      -67.2680  -87.1370   -9.4490 H       2  LIG2        0.0257
     42    H      -66.1130  -88.6270   -7.9860 H       2  LIG2        0.2102
@<TRIPOS>BOND
     1    32    13    1
     2    18     4    1
     3    40    16    1
     4    31    13    1
     5    39    16    1
     6    27    11    1
     7    13    33    1
     8    13     3    1
     9    16    41    1
    10    16     9    1
    11    22     7    1
    12     4     7    1
    13     4     3    1
    14     4     2    1
    15    17     2    1
    16    11     7    1
    17    11     9    1
    18    11    26    1
    19     7    21    1
    20     3     2    1
    21     3    12    1
    22     2     5    1
    23     9     1    1
    24     9     6    1
    25     1    42    1
    26    28    12    1
    27    12    29    1
    28    12    30    1
    29    23     8    1
    30     5     6    1
    31     5    19    1
    32     5     8    1
    33     6    20    1
    34     6    10    1
    35    25    10    1
    36     8    15    1
    37     8    14    1
    38    37    15    1
    39    10    24    1
    40    10    14    1
    41    15    38    1
    42    15    36    1
    43    14    34    1
    44    14    35    1
@<TRIPOS>MOLECULE
11996452_8_run_2.pdb
 42 44 0 0 0
SMALL
GASTEIGER

@<TRIPOS>ATOM
      1    O      -72.9110  -86.4090   -7.4150 O.3     2  LIG2       -0.3886
      2    C      -69.4610  -89.2740   -7.1710 C.3     2  LIG2       -0.0289
      3    C      -68.5820  -89.9220   -8.2360 C.3     2  LIG2       -0.0284
      4    C      -70.0250  -89.6170   -8.5580 C.3     2  LIG2       -0.0319
      5    C      -69.3330  -87.7810   -6.7510 C.3     2  LIG2       -0.0294
      6    C      -70.5910  -86.8510   -6.8610 C.3     2  LIG2       -0.0090
      7    C      -70.4930  -88.4530   -9.4490 C.3     2  LIG2       -0.0468
      8    C      -68.8050  -87.6290   -5.3050 C.3     2  LIG2       -0.0404
      9    C      -71.9230  -87.4290   -7.4640 C.3     2  LIG2        0.0664
     10    C      -70.7160  -86.1690   -5.4800 C.3     2  LIG2       -0.0471
     11    C      -71.8110  -87.8050   -8.9780 C.3     2  LIG2       -0.0237
     12    C      -67.4330  -89.1540   -8.9290 C.3     2  LIG2       -0.0593
     13    C      -68.2190  -91.4010   -8.0090 C.3     2  LIG2       -0.0593
     14    C      -69.3360  -86.2730   -4.8350 C.3     2  LIG2       -0.0498
     15    C      -67.2780  -87.7730   -5.1900 C.3     2  LIG2       -0.0621
     16    C      -72.5750  -88.5800   -6.6510 C.3     2  LIG2       -0.0358
     17    H      -69.7930  -89.9030   -6.3460 H       2  LIG2        0.0312
     18    H      -70.6900  -90.4770   -8.6510 H       2  LIG2        0.0309
     19    H      -68.5920  -87.3080   -7.3920 H       2  LIG2        0.0310
     20    H      -70.3100  -86.0450   -7.5440 H       2  LIG2        0.0331
     21    H      -69.7380  -87.6720   -9.5130 H       2  LIG2        0.0269
     22    H      -70.6180  -88.8170  -10.4700 H       2  LIG2        0.0269
     23    H      -69.2660  -88.3880   -4.6680 H       2  LIG2        0.0301
     24    H      -71.0270  -85.1280   -5.5690 H       2  LIG2        0.0269
     25    H      -71.4540  -86.6660   -4.8520 H       2  LIG2        0.0269
     26    H      -71.9330  -86.9100   -9.5930 H       2  LIG2        0.0293
     27    H      -72.6390  -88.4600   -9.2580 H       2  LIG2        0.0293
     28    H      -67.1740  -89.6250   -9.8770 H       2  LIG2        0.0235
     29    H      -66.5390  -89.1580   -8.3060 H       2  LIG2        0.0235
     30    H      -67.6550  -88.1140   -9.1530 H       2  LIG2        0.0235
     31    H      -68.0010  -91.9010   -8.9540 H       2  LIG2        0.0235
     32    H      -69.0270  -91.9540   -7.5290 H       2  LIG2        0.0235
     33    H      -67.3400  -91.4930   -7.3700 H       2  LIG2        0.0235
     34    H      -69.3960  -86.2090   -3.7480 H       2  LIG2        0.0268
     35    H      -68.6910  -85.4620   -5.1790 H       2  LIG2        0.0268
     36    H      -66.7560  -87.0280   -5.7920 H       2  LIG2        0.0233
     37    H      -66.9520  -88.7580   -5.5270 H       2  LIG2        0.0233
     38    H      -66.9500  -87.6550   -4.1570 H       2  LIG2        0.0233
     39    H      -71.9970  -89.5000   -6.6660 H       2  LIG2        0.0257
     40    H      -73.5570  -88.8430   -7.0470 H       2  LIG2        0.0257
     41    H      -72.7250  -88.3170   -5.6040 H       2  LIG2        0.0257
     42    H      -72.5550  -85.6240   -7.8370 H       2  LIG2        0.2102
@<TRIPOS>BOND
     1    22     7    1
     2    28    12    1
     3    26    11    1
     4    21     7    1
     5     7    11    1
     6     7     4    1
     7    27    11    1
     8    30    12    1
     9    11     9    1
    10    31    13    1
    11    12    29    1
    12    12     3    1
    13    18     4    1
    14     4     3    1
    15     4     2    1
    16     3    13    1
    17     3     2    1
    18    13    32    1
    19    13    33    1
    20    42     1    1
    21    20     6    1
    22     9     1    1
    23     9     6    1
    24     9    16    1
    25    19     5    1
    26     2     5    1
    27     2    17    1
    28    40    16    1
    29     6     5    1
    30     6    10    1
    31     5     8    1
    32    39    16    1
    33    16    41    1
    34    36    15    1
    35    24    10    1
    36    37    15    1
    37    10    25    1
    38    10    14    1
    39     8    15    1
    40     8    14    1
    41     8    23    1
    42    15    38    1
    43    35    14    1
    44    14    34    1
@<TRIPOS>MOLECULE
11996452_8_run_12.pdb
 42 44 0 0 0
SMALL
GASTEIGER

@<TRIPOS>ATOM
      1    O      -66.3850  -88.7740   -9.1790 O.3     2  LIG2       -0.3886
      2    C      -70.7620  -88.5710   -8.1920 C.3     2  LIG2       -0.0289
      3    C      -72.0170  -88.6450   -9.0540 C.3     2  LIG2       -0.0284
      4    C      -70.7640  -88.0330   -9.6300 C.3     2  LIG2       -0.0319
      5    C      -69.8880  -89.8120   -7.8460 C.3     2  LIG2       -0.0294
      6    C      -68.3660  -89.7960   -8.2210 C.3     2  LIG2       -0.0090
      7    C      -69.8470  -88.7230  -10.6550 C.3     2  LIG2       -0.0468
      8    C      -69.9640  -90.1740   -6.3450 C.3     2  LIG2       -0.0404
      9    C      -67.7790  -88.5640   -9.0020 C.3     2  LIG2        0.0664
     10    C      -67.6230  -90.1880   -6.9240 C.3     2  LIG2       -0.0471
     11    C      -68.3490  -88.4150  -10.4510 C.3     2  LIG2       -0.0237
     12    C      -72.5660  -89.9880   -9.5910 C.3     2  LIG2       -0.0593
     13    C      -73.1560  -87.6780   -8.6820 C.3     2  LIG2       -0.0593
     14    C      -68.6520  -90.9050   -6.0520 C.3     2  LIG2       -0.0498
     15    C      -71.2210  -90.9770   -5.9690 C.3     2  LIG2       -0.0621
     16    C      -67.8300  -87.2110   -8.2410 C.3     2  LIG2       -0.0358
     17    H      -70.7440  -87.8260   -7.3980 H       2  LIG2        0.0312
     18    H      -70.7810  -86.9520   -9.7810 H       2  LIG2        0.0309
     19    H      -70.2890  -90.6710   -8.3830 H       2  LIG2        0.0310
     20    H      -68.2120  -90.6430   -8.8940 H       2  LIG2        0.0331
     21    H      -69.9740  -89.8040  -10.6390 H       2  LIG2        0.0269
     22    H      -70.1420  -88.4140  -11.6590 H       2  LIG2        0.0269
     23    H      -69.9560  -89.2580   -5.7490 H       2  LIG2        0.0301
     24    H      -66.7670  -90.8320   -7.1250 H       2  LIG2        0.0269
     25    H      -67.2430  -89.3130   -6.3980 H       2  LIG2        0.0269
     26    H      -67.8170  -89.0850  -11.1300 H       2  LIG2        0.0293
     27    H      -68.1480  -87.4090  -10.8250 H       2  LIG2        0.0293
     28    H      -73.2120  -89.8210  -10.4530 H       2  LIG2        0.0235
     29    H      -73.1590  -90.4920   -8.8280 H       2  LIG2        0.0235
     30    H      -71.8020  -90.6930   -9.9110 H       2  LIG2        0.0235
     31    H      -73.7870  -87.4640   -9.5450 H       2  LIG2        0.0235
     32    H      -72.7800  -86.7230   -8.3110 H       2  LIG2        0.0235
     33    H      -73.7890  -88.1020   -7.9010 H       2  LIG2        0.0235
     34    H      -68.3830  -90.8610   -4.9970 H       2  LIG2        0.0268
     35    H      -68.7220  -91.9580   -6.3310 H       2  LIG2        0.0268
     36    H      -71.2790  -91.9170   -6.5180 H       2  LIG2        0.0233
     37    H      -72.1270  -90.4100   -6.1860 H       2  LIG2        0.0233
     38    H      -71.2310  -91.2140   -4.9040 H       2  LIG2        0.0233
     39    H      -68.8390  -86.8310   -8.1040 H       2  LIG2        0.0257
     40    H      -67.2910  -86.4300   -8.7790 H       2  LIG2        0.0257
     41    H      -67.3780  -87.2730   -7.2510 H       2  LIG2        0.0257
     42    H      -65.9510  -88.6430   -8.3330 H       2  LIG2        0.2102
@<TRIPOS>BOND
     1    22     7    1
     2    26    11    1
     3    27    11    1
     4     7    21    1
     5     7    11    1
     6     7     4    1
     7    28    12    1
     8    11     9    1
     9    30    12    1
    10    18     4    1
    11     4     3    1
    12     4     2    1
    13    12     3    1
    14    12    29    1
    15    31    13    1
    16     1     9    1
    17     1    42    1
    18     3    13    1
    19     3     2    1
    20     9    16    1
    21     9     6    1
    22    20     6    1
    23    40    16    1
    24    13    32    1
    25    13    33    1
    26    19     5    1
    27    16    39    1
    28    16    41    1
    29     6     5    1
    30     6    10    1
    31     2     5    1
    32     2    17    1
    33     5     8    1
    34    24    10    1
    35    10    25    1
    36    10    14    1
    37    36    15    1
    38     8    14    1
    39     8    15    1
    40     8    23    1
    41    35    14    1
    42    37    15    1
    43    14    34    1
    44    15    38    1
@<TRIPOS>MOLECULE
11996452_8_run_12.pdb
 42 44 0 0 0
SMALL
GASTEIGER

@<TRIPOS>ATOM
      1    O      -66.7750  -86.6110   -6.1870 O.3     2  LIG2       -0.3886
      2    C      -70.7150  -88.6930   -6.7440 C.3     2  LIG2       -0.0289
      3    C      -72.1250  -88.3780   -6.2570 C.3     2  LIG2       -0.0284
      4    C      -70.9460  -87.9920   -5.3980 C.3     2  LIG2       -0.0319
      5    C      -70.0160  -87.9150   -7.8960 C.3     2  LIG2       -0.0294
      6    C      -68.6370  -87.2230   -7.6160 C.3     2  LIG2       -0.0090
      7    C      -70.4170  -86.5560   -5.2370 C.3     2  LIG2       -0.0468
      8    C      -69.8140  -88.7950   -9.1510 C.3     2  LIG2       -0.0404
      9    C      -68.0350  -87.2670   -6.1640 C.3     2  LIG2        0.0664
     10    C      -67.7020  -87.7040   -8.7490 C.3     2  LIG2       -0.0471
     11    C      -68.8810  -86.4740   -5.1140 C.3     2  LIG2       -0.0237
     12    C      -73.0050  -87.3000   -6.9320 C.3     2  LIG2       -0.0593
     13    C      -72.9650  -89.5800   -5.7840 C.3     2  LIG2       -0.0593
     14    C      -68.6180  -88.1750   -9.8760 C.3     2  LIG2       -0.0498
     15    C      -71.0750  -88.9180  -10.0240 C.3     2  LIG2       -0.0621
     16    C      -67.6780  -88.6830   -5.6370 C.3     2  LIG2       -0.0358
     17    H      -70.3900  -89.7320   -6.6980 H       2  LIG2        0.0312
     18    H      -70.8080  -88.5680   -4.4810 H       2  LIG2        0.0309
     19    H      -70.6690  -87.1000   -8.2020 H       2  LIG2        0.0310
     20    H      -68.7880  -86.1590   -7.8160 H       2  LIG2        0.0331
     21    H      -70.7230  -85.9240   -6.0680 H       2  LIG2        0.0269
     22    H      -70.8710  -86.1080   -4.3520 H       2  LIG2        0.0269
     23    H      -69.5140  -89.8000   -8.8470 H       2  LIG2        0.0301
     24    H      -67.0390  -86.9100   -9.0920 H       2  LIG2        0.0269
     25    H      -67.0680  -88.5270   -8.4230 H       2  LIG2        0.0269
     26    H      -68.6400  -85.4090   -5.1700 H       2  LIG2        0.0293
     27    H      -68.5970  -86.7790   -4.1050 H       2  LIG2        0.0293
     28    H      -73.7890  -86.9650   -6.2520 H       2  LIG2        0.0235
     29    H      -73.4910  -87.7030   -7.8200 H       2  LIG2        0.0235
     30    H      -72.4670  -86.4090   -7.2440 H       2  LIG2        0.0235
     31    H      -73.7270  -89.2690   -5.0680 H       2  LIG2        0.0235
     32    H      -72.3550  -90.3420   -5.2980 H       2  LIG2        0.0235
     33    H      -73.4700  -90.0570   -6.6250 H       2  LIG2        0.0235
     34    H      -68.1160  -88.8900  -10.5280 H       2  LIG2        0.0268
     35    H      -68.9310  -87.3300  -10.4920 H       2  LIG2        0.0268
     36    H      -71.4170  -87.9450  -10.3790 H       2  LIG2        0.0233
     37    H      -71.8940  -89.3740   -9.4670 H       2  LIG2        0.0233
     38    H      -70.8870  -89.5420  -10.8990 H       2  LIG2        0.0233
     39    H      -68.5490  -89.3070   -5.4540 H       2  LIG2        0.0257
     40    H      -67.1460  -88.6320   -4.6860 H       2  LIG2        0.0257
     41    H      -67.0330  -89.2320   -6.3230 H       2  LIG2        0.0257
     42    H      -66.1590  -87.1590   -6.6790 H       2  LIG2        0.2102
@<TRIPOS>BOND
     1    38    15    1
     2    34    14    1
     3    35    14    1
     4    36    15    1
     5    15    37    1
     6    15     8    1
     7    14     8    1
     8    14    10    1
     9     8    23    1
    10     8     5    1
    11    24    10    1
    12    10    25    1
    13    10     6    1
    14    19     5    1
    15     5     6    1
    16     5     2    1
    17    29    12    1
    18    20     6    1
    19     6     9    1
    20    30    12    1
    21    12     3    1
    22    12    28    1
    23     2    17    1
    24     2     3    1
    25     2     4    1
    26    42     1    1
    27    33    13    1
    28    41    16    1
    29     3    13    1
    30     3     4    1
    31     1     9    1
    32     9    16    1
    33     9    11    1
    34    21     7    1
    35    13    32    1
    36    13    31    1
    37    16    39    1
    38    16    40    1
    39     4     7    1
    40     4    18    1
    41     7    11    1
    42     7    22    1
    43    26    11    1
    44    11    27    1
@<TRIPOS>MOLECULE
11996452_8_run_19.pdb
 42 44 0 0 0
SMALL
GASTEIGER

@<TRIPOS>ATOM
      1    O      -60.1240  -78.7050  -15.8840 O.3     2  LIG2       -0.3886
      2    C      -62.6690  -79.4520  -12.2610 C.3     2  LIG2       -0.0289
      3    C      -63.5890  -78.5520  -11.4440 C.3     2  LIG2       -0.0284
      4    C      -62.3670  -77.9560  -12.0980 C.3     2  LIG2       -0.0319
      5    C      -63.0430  -80.0050  -13.6670 C.3     2  LIG2       -0.0294
      6    C      -62.0930  -79.7020  -14.8770 C.3     2  LIG2       -0.0090
      7    C      -62.3950  -77.0780  -13.3620 C.3     2  LIG2       -0.0468
      8    C      -63.2530  -81.5360  -13.6520 C.3     2  LIG2       -0.0404
      9    C      -60.8330  -78.7880  -14.6560 C.3     2  LIG2        0.0664
     10    C      -61.8230  -81.0730  -15.5370 C.3     2  LIG2       -0.0471
     11    C      -61.1910  -77.3070  -14.3000 C.3     2  LIG2       -0.0237
     12    C      -65.0110  -78.1790  -11.9250 C.3     2  LIG2       -0.0593
     13    C      -63.5390  -78.7360   -9.9160 C.3     2  LIG2       -0.0593
     14    C      -62.9610  -81.9870  -15.0840 C.3     2  LIG2       -0.0498
     15    C      -64.6400  -81.9610  -13.1370 C.3     2  LIG2       -0.0621
     16    C      -59.7670  -79.3540  -13.6790 C.3     2  LIG2       -0.0358
     17    H      -62.0240  -80.1380  -11.7120 H       2  LIG2        0.0312
     18    H      -61.5580  -77.6580  -11.4290 H       2  LIG2        0.0309
     19    H      -63.9980  -79.5730  -13.9600 H       2  LIG2        0.0310
     20    H      -62.6990  -79.1590  -15.6070 H       2  LIG2        0.0331
     21    H      -63.3050  -77.2370  -13.9370 H       2  LIG2        0.0269
     22    H      -62.4210  -76.0290  -13.0640 H       2  LIG2        0.0269
     23    H      -62.4990  -82.0010  -13.0130 H       2  LIG2        0.0301
     24    H      -61.7910  -81.0020  -16.6240 H       2  LIG2        0.0269
     25    H      -60.8690  -81.4910  -15.2190 H       2  LIG2        0.0269
     26    H      -61.4220  -76.7510  -15.2120 H       2  LIG2        0.0293
     27    H      -60.3190  -76.8090  -13.8730 H       2  LIG2        0.0293
     28    H      -65.3590  -77.2740  -11.4270 H       2  LIG2        0.0235
     29    H      -65.7160  -78.9760  -11.6880 H       2  LIG2        0.0235
     30    H      -65.0930  -77.9940  -12.9930 H       2  LIG2        0.0235
     31    H      -63.8420  -77.8230   -9.4000 H       2  LIG2        0.0235
     32    H      -62.5380  -78.9900   -9.5640 H       2  LIG2        0.0235
     33    H      -64.2070  -79.5370   -9.5970 H       2  LIG2        0.0235
     34    H      -62.6750  -83.0380  -15.1350 H       2  LIG2        0.0268
     35    H      -63.8360  -81.8510  -15.7220 H       2  LIG2        0.0268
     36    H      -65.4420  -81.5430  -13.7470 H       2  LIG2        0.0233
     37    H      -64.7950  -81.6260  -12.1110 H       2  LIG2        0.0233
     38    H      -64.7460  -83.0460  -13.1470 H       2  LIG2        0.0233
     39    H      -60.1040  -79.3900  -12.6470 H       2  LIG2        0.0257
     40    H      -58.8650  -78.7390  -13.6730 H       2  LIG2        0.0257
     41    H      -59.4510  -80.3620  -13.9460 H       2  LIG2        0.0257
     42    H      -60.0390  -79.5920  -16.2430 H       2  LIG2        0.2102
@<TRIPOS>BOND
     1    24    10    1
     2    42     1    1
     3     1     9    1
     4    35    14    1
     5    20     6    1
     6    10    25    1
     7    10    14    1
     8    10     6    1
     9    26    11    1
    10    34    14    1
    11    14     8    1
    12     6     9    1
    13     6     5    1
    14     9    11    1
    15     9    16    1
    16    11    27    1
    17    11     7    1
    18    19     5    1
    19    41    16    1
    20    21     7    1
    21    36    15    1
    22    16    40    1
    23    16    39    1
    24     5     8    1
    25     5     2    1
    26     8    15    1
    27     8    23    1
    28     7    22    1
    29     7     4    1
    30    38    15    1
    31    15    37    1
    32    30    12    1
    33     2     4    1
    34     2    17    1
    35     2     3    1
    36     4     3    1
    37     4    18    1
    38    12    29    1
    39    12     3    1
    40    12    28    1
    41     3    13    1
    42    13    33    1
    43    13    32    1
    44    13    31    1
@<TRIPOS>MOLECULE
11996452_8_run_12.pdb
 42 44 0 0 0
SMALL
GASTEIGER

@<TRIPOS>ATOM
      1    O      -68.0080  -87.4090   -9.9360 O.3     2  LIG2       -0.3886
      2    C      -70.2780  -88.3550   -6.1780 C.3     2  LIG2       -0.0289
      3    C      -71.7570  -88.2700   -5.8190 C.3     2  LIG2       -0.0284
      4    C      -71.1800  -87.2780   -6.7980 C.3     2  LIG2       -0.0319
      5    C      -69.6820  -89.4660   -7.0910 C.3     2  LIG2       -0.0294
      6    C      -68.8970  -89.0460   -8.3820 C.3     2  LIG2       -0.0090
      7    C      -71.4050  -87.3210   -8.3190 C.3     2  LIG2       -0.0468
      8    C      -68.7540  -90.4230   -6.3100 C.3     2  LIG2       -0.0404
      9    C      -68.7980  -87.5230   -8.7610 C.3     2  LIG2        0.0664
     10    C      -67.5570  -89.8120   -8.3110 C.3     2  LIG2       -0.0471
     11    C      -70.1740  -86.8830   -9.1390 C.3     2  LIG2       -0.0237
     12    C      -72.7750  -89.3410   -6.2780 C.3     2  LIG2       -0.0593
     13    C      -72.0850  -87.7450   -4.4090 C.3     2  LIG2       -0.0593
     14    C      -67.7940  -90.9840   -7.3610 C.3     2  LIG2       -0.0498
     15    C      -69.5110  -91.5050   -5.5200 C.3     2  LIG2       -0.0621
     16    C      -68.0320  -86.6350   -7.7420 C.3     2  LIG2       -0.0358
     17    H      -69.5610  -88.0140   -5.4310 H       2  LIG2        0.0312
     18    H      -71.0830  -86.2500   -6.4420 H       2  LIG2        0.0309
     19    H      -70.5020  -90.0780   -7.4620 H       2  LIG2        0.0310
     20    H      -69.4310  -89.5010   -9.2210 H       2  LIG2        0.0331
     21    H      -71.6950  -88.3160   -8.6510 H       2  LIG2        0.0269
     22    H      -72.2490  -86.6760   -8.5700 H       2  LIG2        0.0269
     23    H      -68.1500  -89.8490   -5.6030 H       2  LIG2        0.0301
     24    H      -67.2390  -90.1650   -9.2920 H       2  LIG2        0.0269
     25    H      -66.7550  -89.1830   -7.9260 H       2  LIG2        0.0269
     26    H      -70.4180  -87.1150  -10.1790 H       2  LIG2        0.0293
     27    H      -70.0990  -85.7940   -9.0980 H       2  LIG2        0.0293
     28    H      -73.7890  -88.9400   -6.2540 H       2  LIG2        0.0235
     29    H      -72.7480  -90.2050   -5.6140 H       2  LIG2        0.0235
     30    H      -72.6160  -89.7130   -7.2860 H       2  LIG2        0.0235
     31    H      -73.0810  -87.3000   -4.3770 H       2  LIG2        0.0235
     32    H      -71.3790  -86.9830   -4.0790 H       2  LIG2        0.0235
     33    H      -72.0560  -88.5520   -3.6750 H       2  LIG2        0.0235
     34    H      -66.8620  -91.3370   -6.9210 H       2  LIG2        0.0268
     35    H      -68.2470  -91.8220   -7.8940 H       2  LIG2        0.0268
     36    H      -70.1220  -92.1290   -6.1730 H       2  LIG2        0.0233
     37    H      -70.1730  -91.0560   -4.7780 H       2  LIG2        0.0233
     38    H      -68.8200  -92.1590   -4.9880 H       2  LIG2        0.0233
     39    H      -68.5530  -86.5170   -6.7960 H       2  LIG2        0.0257
     40    H      -67.8850  -85.6250   -8.1260 H       2  LIG2        0.0257
     41    H      -67.0410  -87.0260   -7.5130 H       2  LIG2        0.0257
     42    H      -67.9800  -86.4840  -10.1910 H       2  LIG2        0.2102
@<TRIPOS>BOND
     1    42     1    1
     2    26    11    1
     3     1     9    1
     4    24    10    1
     5    20     6    1
     6    11    27    1
     7    11     9    1
     8    11     7    1
     9     9     6    1
    10     9    16    1
    11    21     7    1
    12    22     7    1
    13     6    10    1
    14     6     5    1
    15     7     4    1
    16    10    25    1
    17    10    14    1
    18    40    16    1
    19    35    14    1
    20    16    41    1
    21    16    39    1
    22    19     5    1
    23    14    34    1
    24    14     8    1
    25    30    12    1
    26     5     8    1
    27     5     2    1
    28     4    18    1
    29     4     2    1
    30     4     3    1
    31     8    23    1
    32     8    15    1
    33    12    28    1
    34    12     3    1
    35    12    29    1
    36     2     3    1
    37     2    17    1
    38    36    15    1
    39     3    13    1
    40    15    38    1
    41    15    37    1
    42    13    31    1
    43    13    32    1
    44    13    33    1
