@<TRIPOS>MOLECULE
11996452_4_run_7.pdb
 42 44 0 0 0
SMALL
GASTEIGER

@<TRIPOS>ATOM
      1    O      -70.5390  -86.1590   -8.0990 O.3     2  LIG2       -0.3886
      2    C      -69.8550  -89.9260   -9.4840 C.3     2  LIG2       -0.0289
      3    C      -69.8710  -89.9340  -11.0010 C.3     2  LIG2       -0.0284
      4    C      -71.1340  -89.5650  -10.2520 C.3     2  LIG2       -0.0319
      5    C      -69.1800  -88.8150   -8.6400 C.3     2  LIG2       -0.0294
      6    C      -70.0540  -88.4490   -7.4070 C.3     2  LIG2       -0.0090
      7    C      -71.6960  -88.1290  -10.1520 C.3     2  LIG2       -0.0468
      8    C      -67.7480  -89.1210   -8.1110 C.3     2  LIG2       -0.0404
      9    C      -71.1540  -87.3610   -7.6600 C.3     2  LIG2        0.0664
     10    C      -69.0330  -88.1220   -6.3020 C.3     2  LIG2       -0.0471
     11    C      -72.2060  -87.7580   -8.7400 C.3     2  LIG2       -0.0237
     12    C      -69.0840  -88.8850  -11.8190 C.3     2  LIG2       -0.0593
     13    C      -69.8390  -91.3180  -11.6770 C.3     2  LIG2       -0.0593
     14    C      -67.8430  -89.0340   -6.5810 C.3     2  LIG2       -0.0498
     15    C      -67.1060  -90.4390   -8.5930 C.3     2  LIG2       -0.0621
     16    C      -71.9070  -87.0000   -6.3570 C.3     2  LIG2       -0.0358
     17    H      -69.8700  -90.8840   -8.9620 H       2  LIG2        0.0312
     18    H      -71.9410  -90.2970  -10.2990 H       2  LIG2        0.0309
     19    H      -69.0740  -87.9160   -9.2420 H       2  LIG2        0.0310
     20    H      -70.5730  -89.3510   -7.0740 H       2  LIG2        0.0331
     21    H      -70.9910  -87.3740  -10.4940 H       2  LIG2        0.0269
     22    H      -72.5390  -88.0610  -10.8400 H       2  LIG2        0.0269
     23    H      -67.0890  -88.3150   -8.4380 H       2  LIG2        0.0301
     24    H      -68.7260  -87.0760   -6.3480 H       2  LIG2        0.0269
     25    H      -69.4370  -88.3010   -5.3040 H       2  LIG2        0.0269
     26    H      -72.9300  -86.9470   -8.8430 H       2  LIG2        0.0293
     27    H      -72.7900  -88.6010   -8.3650 H       2  LIG2        0.0293
     28    H      -69.5010  -88.7870  -12.8220 H       2  LIG2        0.0235
     29    H      -68.0410  -89.1860  -11.9250 H       2  LIG2        0.0235
     30    H      -69.0760  -87.8870  -11.3870 H       2  LIG2        0.0235
     31    H      -70.2890  -91.2810  -12.6690 H       2  LIG2        0.0235
     32    H      -70.3840  -92.0680  -11.1010 H       2  LIG2        0.0235
     33    H      -68.8150  -91.6750  -11.7850 H       2  LIG2        0.0235
     34    H      -68.0150  -90.0200   -6.1450 H       2  LIG2        0.0268
     35    H      -66.9280  -88.6390   -6.1370 H       2  LIG2        0.0268
     36    H      -67.6660  -91.3120   -8.2590 H       2  LIG2        0.0233
     37    H      -66.0900  -90.5390   -8.2110 H       2  LIG2        0.0233
     38    H      -67.0480  -90.4730   -9.6820 H       2  LIG2        0.0233
     39    H      -72.4010  -87.8750   -5.9330 H       2  LIG2        0.0257
     40    H      -72.6740  -86.2440   -6.5280 H       2  LIG2        0.0257
     41    H      -71.2370  -86.6020   -5.5940 H       2  LIG2        0.0257
     42    H      -71.2160  -85.4830   -8.1790 H       2  LIG2        0.2102
@<TRIPOS>BOND
     1    28    12    1
     2    31    13    1
     3    29    12    1
     4    12    30    1
     5    12     3    1
     6    33    13    1
     7    13    32    1
     8    13     3    1
     9     3     4    1
    10     3     2    1
    11    22     7    1
    12    21     7    1
    13    18     4    1
    14     4     7    1
    15     4     2    1
    16     7    11    1
    17    38    15    1
    18     2    17    1
    19     2     5    1
    20    19     5    1
    21    26    11    1
    22    11    27    1
    23    11     9    1
    24     5     8    1
    25     5     6    1
    26    15    36    1
    27    15    37    1
    28    15     8    1
    29    23     8    1
    30    42     1    1
    31     8    14    1
    32     1     9    1
    33     9     6    1
    34     9    16    1
    35     6    20    1
    36     6    10    1
    37    14    10    1
    38    14    34    1
    39    14    35    1
    40    40    16    1
    41    16    39    1
    42    16    41    1
    43    24    10    1
    44    10    25    1
@<TRIPOS>MOLECULE
11996452_4_run_11.pdb
 42 44 0 0 0
SMALL
GASTEIGER

@<TRIPOS>ATOM
      1    O      -67.0390  -88.7970   -6.6950 O.3     2  LIG2       -0.3886
      2    C      -70.6550  -88.5120   -8.5430 C.3     2  LIG2       -0.0289
      3    C      -70.5340  -88.9390   -9.9940 C.3     2  LIG2       -0.0284
      4    C      -69.7720  -87.7210   -9.5160 C.3     2  LIG2       -0.0319
      5    C      -69.9590  -89.2500   -7.3700 C.3     2  LIG2       -0.0294
      6    C      -69.3880  -88.2360   -6.3400 C.3     2  LIG2       -0.0090
      7    C      -68.2430  -87.6860   -9.2920 C.3     2  LIG2       -0.0468
      8    C      -70.8320  -90.2660   -6.5770 C.3     2  LIG2       -0.0404
      9    C      -67.9450  -87.7050   -6.6460 C.3     2  LIG2        0.0664
     10    C      -69.5670  -88.9360   -4.9800 C.3     2  LIG2       -0.0471
     11    C      -67.8210  -86.9450   -8.0020 C.3     2  LIG2       -0.0237
     12    C      -69.8030  -90.2430  -10.3890 C.3     2  LIG2       -0.0593
     13    C      -71.7650  -88.6880  -10.8840 C.3     2  LIG2       -0.0593
     14    C      -70.8400  -89.7640   -5.1270 C.3     2  LIG2       -0.0498
     15    C      -72.2510  -90.5260   -7.1240 C.3     2  LIG2       -0.0621
     16    C      -67.4310  -86.7760   -5.5200 C.3     2  LIG2       -0.0358
     17    H      -71.5740  -88.0150   -8.2250 H       2  LIG2        0.0312
     18    H      -70.1330  -86.7620   -9.8910 H       2  LIG2        0.0309
     19    H      -69.1240  -89.8310   -7.7530 H       2  LIG2        0.0310
     20    H      -70.0470  -87.3640   -6.3140 H       2  LIG2        0.0331
     21    H      -67.7910  -88.6750   -9.3100 H       2  LIG2        0.0269
     22    H      -67.8030  -87.1590  -10.1400 H       2  LIG2        0.0269
     23    H      -70.3160  -91.2280   -6.5810 H       2  LIG2        0.0301
     24    H      -68.7180  -89.5840   -4.7570 H       2  LIG2        0.0269
     25    H      -69.6580  -88.2210   -4.1600 H       2  LIG2        0.0269
     26    H      -66.7890  -86.6100   -8.1260 H       2  LIG2        0.0293
     27    H      -68.4040  -86.0240   -7.9420 H       2  LIG2        0.0293
     28    H      -69.4730  -90.1980  -11.4270 H       2  LIG2        0.0235
     29    H      -70.4710  -91.1000  -10.2930 H       2  LIG2        0.0235
     30    H      -68.9230  -90.4670   -9.7920 H       2  LIG2        0.0235
     31    H      -71.4790  -88.5900  -11.9320 H       2  LIG2        0.0235
     32    H      -72.2940  -87.7750  -10.6060 H       2  LIG2        0.0235
     33    H      -72.4770  -89.5100  -10.8060 H       2  LIG2        0.0235
     34    H      -71.7170  -89.1430   -4.9340 H       2  LIG2        0.0268
     35    H      -70.8620  -90.5860   -4.4100 H       2  LIG2        0.0268
     36    H      -72.8680  -89.6270   -7.1020 H       2  LIG2        0.0233
     37    H      -72.7630  -91.2850   -6.5330 H       2  LIG2        0.0233
     38    H      -72.2170  -90.8840   -8.1540 H       2  LIG2        0.0233
     39    H      -68.0810  -85.9090   -5.3960 H       2  LIG2        0.0257
     40    H      -66.4270  -86.4030   -5.7290 H       2  LIG2        0.0257
     41    H      -67.3820  -87.2870   -4.5580 H       2  LIG2        0.0257
     42    H      -66.1710  -88.4600   -6.9280 H       2  LIG2        0.2102
@<TRIPOS>BOND
     1    31    13    1
     2    28    12    1
     3    13    33    1
     4    13    32    1
     5    13     3    1
     6    12    29    1
     7    12     3    1
     8    12    30    1
     9    22     7    1
    10     3     4    1
    11     3     2    1
    12    18     4    1
    13     4     7    1
    14     4     2    1
    15    21     7    1
    16     7    11    1
    17     2    17    1
    18     2     5    1
    19    38    15    1
    20    26    11    1
    21    11    27    1
    22    11     9    1
    23    19     5    1
    24     5     8    1
    25     5     6    1
    26    15    36    1
    27    15     8    1
    28    15    37    1
    29    42     1    1
    30     1     9    1
    31     9     6    1
    32     9    16    1
    33    23     8    1
    34     8    14    1
    35     6    20    1
    36     6    10    1
    37    40    16    1
    38    16    39    1
    39    16    41    1
    40    14    10    1
    41    14    34    1
    42    14    35    1
    43    10    24    1
    44    10    25    1
@<TRIPOS>MOLECULE
11996452_4_run_6.pdb
 42 44 0 0 0
SMALL
GASTEIGER

@<TRIPOS>ATOM
      1    O      -67.2890  -87.8100   -8.3130 O.3     2  LIG2       -0.3886
      2    C      -70.8990  -88.2170   -6.4750 C.3     2  LIG2       -0.0289
      3    C      -71.0230  -87.2140   -5.3430 C.3     2  LIG2       -0.0284
      4    C      -69.9530  -88.2820   -5.2690 C.3     2  LIG2       -0.0319
      5    C      -70.2850  -87.8790   -7.8580 C.3     2  LIG2       -0.0294
      6    C      -69.3940  -89.0460   -8.3680 C.3     2  LIG2       -0.0090
      7    C      -68.4440  -88.0150   -5.4750 C.3     2  LIG2       -0.0468
      8    C      -71.2920  -87.5390   -8.9960 C.3     2  LIG2       -0.0404
      9    C      -67.9030  -89.0160   -7.8830 C.3     2  LIG2        0.0664
     10    C      -69.5990  -89.0400   -9.8940 C.3     2  LIG2       -0.0471
     11    C      -67.7360  -89.0880   -6.3350 C.3     2  LIG2       -0.0237
     12    C      -70.6630  -85.7240   -5.5470 C.3     2  LIG2       -0.0593
     13    C      -72.2420  -87.3790   -4.4150 C.3     2  LIG2       -0.0593
     14    C      -71.0390  -88.5790  -10.0970 C.3     2  LIG2       -0.0498
     15    C      -72.7780  -87.4490   -8.5940 C.3     2  LIG2       -0.0621
     16    C      -67.0770  -90.1610   -8.5150 C.3     2  LIG2       -0.0358
     17    H      -71.6390  -89.0160   -6.5400 H       2  LIG2        0.0312
     18    H      -70.1130  -89.0580   -4.5180 H       2  LIG2        0.0309
     19    H      -69.6520  -86.9990   -7.7680 H       2  LIG2        0.0310
     20    H      -69.8220  -89.9860   -8.0130 H       2  LIG2        0.0331
     21    H      -68.2420  -87.0280   -5.8840 H       2  LIG2        0.0269
     22    H      -67.9770  -88.0140   -4.4890 H       2  LIG2        0.0269
     23    H      -71.0200  -86.5650   -9.4070 H       2  LIG2        0.0301
     24    H      -68.9100  -88.3490  -10.3810 H       2  LIG2        0.0269
     25    H      -69.4390  -90.0260  -10.3320 H       2  LIG2        0.0269
     26    H      -66.6720  -89.0670   -6.0930 H       2  LIG2        0.0293
     27    H      -68.0770  -90.0670   -5.9910 H       2  LIG2        0.0293
     28    H      -70.4340  -85.2510   -4.5920 H       2  LIG2        0.0235
     29    H      -71.5010  -85.1840   -5.9890 H       2  LIG2        0.0235
     30    H      -69.8060  -85.5500   -6.1930 H       2  LIG2        0.0235
     31    H      -72.0440  -86.9590   -3.4290 H       2  LIG2        0.0235
     32    H      -72.5110  -88.4270   -4.2740 H       2  LIG2        0.0235
     33    H      -73.1160  -86.8740   -4.8260 H       2  LIG2        0.0235
     34    H      -71.7220  -89.4260   -9.9970 H       2  LIG2        0.0268
     35    H      -71.1850  -88.1620  -11.0950 H       2  LIG2        0.0268
     36    H      -73.1610  -88.4010   -8.2260 H       2  LIG2        0.0233
     37    H      -73.3950  -87.1590   -9.4450 H       2  LIG2        0.0233
     38    H      -72.9300  -86.7010   -7.8140 H       2  LIG2        0.0233
     39    H      -67.4900  -91.1360   -8.2520 H       2  LIG2        0.0257
     40    H      -66.0390  -90.1460   -8.1800 H       2  LIG2        0.0257
     41    H      -67.0570  -90.1000   -9.6040 H       2  LIG2        0.0257
     42    H      -66.4010  -87.7750   -7.9480 H       2  LIG2        0.2102
@<TRIPOS>BOND
     1    35    14    1
     2    24    10    1
     3    25    10    1
     4    14    34    1
     5    14    10    1
     6    14     8    1
     7    10     6    1
     8    41    16    1
     9    37    15    1
    10    23     8    1
    11     8    15    1
    12     8     5    1
    13    15    36    1
    14    15    38    1
    15    16    39    1
    16    16    40    1
    17    16     9    1
    18     6    20    1
    19     6     9    1
    20     6     5    1
    21     1    42    1
    22     1     9    1
    23     9    11    1
    24     5    19    1
    25     5     2    1
    26    17     2    1
    27     2     3    1
    28     2     4    1
    29    11    26    1
    30    11    27    1
    31    11     7    1
    32    30    12    1
    33    29    12    1
    34    21     7    1
    35    12     3    1
    36    12    28    1
    37     7     4    1
    38     7    22    1
    39     3     4    1
    40     3    13    1
    41     4    18    1
    42    33    13    1
    43    13    32    1
    44    13    31    1
@<TRIPOS>MOLECULE
11996452_4_run_9.pdb
 42 44 0 0 0
SMALL
GASTEIGER

@<TRIPOS>ATOM
      1    O      -70.9640  -89.1950  -11.8550 O.3     2  LIG2       -0.3886
      2    C      -69.4220  -88.8340   -8.1040 C.3     2  LIG2       -0.0289
      3    C      -68.8910  -87.4280   -7.8920 C.3     2  LIG2       -0.0284
      4    C      -68.2540  -88.3080   -8.9470 C.3     2  LIG2       -0.0319
      5    C      -70.7560  -89.1460   -8.8310 C.3     2  LIG2       -0.0294
      6    C      -70.6050  -90.3870   -9.7550 C.3     2  LIG2       -0.0090
      7    C      -68.4450  -88.1160  -10.4690 C.3     2  LIG2       -0.0468
      8    C      -71.9950  -89.3990   -7.9230 C.3     2  LIG2       -0.0404
      9    C      -70.0770  -90.0900  -11.2010 C.3     2  LIG2        0.0664
     10    C      -71.9740  -91.0870   -9.6750 C.3     2  LIG2       -0.0471
     11    C      -68.6600  -89.4400  -11.2400 C.3     2  LIG2       -0.0237
     12    C      -69.7270  -86.1860   -8.2770 C.3     2  LIG2       -0.0593
     13    C      -68.0850  -87.1900   -6.6010 C.3     2  LIG2       -0.0593
     14    C      -72.4730  -90.8180   -8.2590 C.3     2  LIG2       -0.0498
     15    C      -71.7930  -89.1820   -6.4090 C.3     2  LIG2       -0.0621
     16    C      -70.0480  -91.3700  -12.0690 C.3     2  LIG2       -0.0358
     17    H      -69.1700  -89.5980   -7.3670 H       2  LIG2        0.0312
     18    H      -67.2450  -88.6590   -8.7220 H       2  LIG2        0.0309
     19    H      -71.0320  -88.3020   -9.4590 H       2  LIG2        0.0310
     20    H      -69.8920  -91.0740   -9.2930 H       2  LIG2        0.0331
     21    H      -69.2450  -87.4200  -10.7100 H       2  LIG2        0.0269
     22    H      -67.5380  -87.6480  -10.8540 H       2  LIG2        0.0269
     23    H      -72.7850  -88.7120   -8.2330 H       2  LIG2        0.0301
     24    H      -72.6700  -90.6740  -10.4060 H       2  LIG2        0.0269
     25    H      -71.8970  -92.1590   -9.8660 H       2  LIG2        0.0269
     26    H      -68.3750  -89.2750  -12.2810 H       2  LIG2        0.0293
     27    H      -67.9330  -90.1630  -10.8660 H       2  LIG2        0.0293
     28    H      -69.0820  -85.3210   -8.4290 H       2  LIG2        0.0235
     29    H      -70.4300  -85.9360   -7.4810 H       2  LIG2        0.0235
     30    H      -70.3140  -86.2990   -9.1840 H       2  LIG2        0.0235
     31    H      -67.3890  -86.3590   -6.7200 H       2  LIG2        0.0235
     32    H      -67.4990  -88.0660   -6.3160 H       2  LIG2        0.0235
     33    H      -68.7460  -86.9580   -5.7670 H       2  LIG2        0.0235
     34    H      -72.0480  -91.5470   -7.5660 H       2  LIG2        0.0268
     35    H      -73.5590  -90.9090   -8.1980 H       2  LIG2        0.0268
     36    H      -71.0580  -89.8720   -5.9920 H       2  LIG2        0.0233
     37    H      -72.7260  -89.3350   -5.8660 H       2  LIG2        0.0233
     38    H      -71.4570  -88.1660   -6.1980 H       2  LIG2        0.0233
     39    H      -69.3990  -92.1290  -11.6310 H       2  LIG2        0.0257
     40    H      -69.6810  -91.1680  -13.0770 H       2  LIG2        0.0257
     41    H      -71.0390  -91.8120  -12.1790 H       2  LIG2        0.0257
     42    H      -70.8850  -88.3320  -11.4410 H       2  LIG2        0.2102
@<TRIPOS>BOND
     1    40    16    1
     2    26    11    1
     3    41    16    1
     4    16    39    1
     5    16     9    1
     6     1    42    1
     7     1     9    1
     8    11     9    1
     9    11    27    1
    10    11     7    1
    11     9     6    1
    12    22     7    1
    13    21     7    1
    14     7     4    1
    15    24    10    1
    16    25    10    1
    17     6    10    1
    18     6    20    1
    19     6     5    1
    20    10    14    1
    21    19     5    1
    22    30    12    1
    23     4    18    1
    24     4     2    1
    25     4     3    1
    26     5     2    1
    27     5     8    1
    28    28    12    1
    29    12     3    1
    30    12    29    1
    31    14    35    1
    32    14     8    1
    33    14    34    1
    34    23     8    1
    35     2     3    1
    36     2    17    1
    37     8    15    1
    38     3    13    1
    39    31    13    1
    40    13    32    1
    41    13    33    1
    42    15    38    1
    43    15    36    1
    44    15    37    1
@<TRIPOS>MOLECULE
11996452_4_run_9.pdb
 42 44 0 0 0
SMALL
GASTEIGER

@<TRIPOS>ATOM
      1    O      -69.2690  -88.6480   -6.3380 O.3     2  LIG2       -0.3886
      2    C      -69.8420  -88.4870  -10.3660 C.3     2  LIG2       -0.0289
      3    C      -68.9210  -89.4720  -11.0620 C.3     2  LIG2       -0.0284
      4    C      -68.3190  -88.3210  -10.2850 C.3     2  LIG2       -0.0319
      5    C      -70.6050  -88.8070   -9.0550 C.3     2  LIG2       -0.0294
      6    C      -70.5910  -87.5850   -8.0940 C.3     2  LIG2       -0.0090
      7    C      -67.6130  -88.4710   -8.9180 C.3     2  LIG2       -0.0468
      8    C      -72.0900  -89.2510   -9.2090 C.3     2  LIG2       -0.0404
      9    C      -69.3430  -87.4860   -7.1490 C.3     2  LIG2        0.0664
     10    C      -71.9590  -87.6420   -7.3890 C.3     2  LIG2       -0.0471
     11    C      -67.9830  -87.3650   -7.9020 C.3     2  LIG2       -0.0237
     12    C      -68.7870  -90.9320  -10.5730 C.3     2  LIG2       -0.0593
     13    C      -68.8640  -89.3830  -12.5990 C.3     2  LIG2       -0.0593
     14    C      -72.9150  -88.2200   -8.4270 C.3     2  LIG2       -0.0498
     15    C      -72.6000  -89.4510  -10.6520 C.3     2  LIG2       -0.0621
     16    C      -69.4650  -86.2930   -6.1710 C.3     2  LIG2       -0.0358
     17    H      -70.3680  -87.7510  -10.9750 H       2  LIG2        0.0312
     18    H      -67.8440  -87.5430  -10.8850 H       2  LIG2        0.0309
     19    H      -70.1150  -89.6320   -8.5420 H       2  LIG2        0.0310
     20    H      -70.6040  -86.6740   -8.6970 H       2  LIG2        0.0331
     21    H      -67.7700  -89.4480   -8.4670 H       2  LIG2        0.0269
     22    H      -66.5390  -88.4130   -9.0990 H       2  LIG2        0.0269
     23    H      -72.2090  -90.2100   -8.7010 H       2  LIG2        0.0301
     24    H      -71.9220  -88.2870   -6.5100 H       2  LIG2        0.0269
     25    H      -72.2900  -86.6560   -7.0580 H       2  LIG2        0.0269
     26    H      -67.1780  -87.2960   -7.1680 H       2  LIG2        0.0293
     27    H      -67.9580  -86.4090   -8.4290 H       2  LIG2        0.0293
     28    H      -67.8440  -91.3640  -10.9070 H       2  LIG2        0.0235
     29    H      -69.5920  -91.5470  -10.9780 H       2  LIG2        0.0235
     30    H      -68.8190  -91.0520   -9.4930 H       2  LIG2        0.0235
     31    H      -67.9150  -89.7630  -12.9800 H       2  LIG2        0.0235
     32    H      -68.9680  -88.3560  -12.9550 H       2  LIG2        0.0235
     33    H      -69.6650  -89.9640  -13.0530 H       2  LIG2        0.0235
     34    H      -73.2750  -87.4280   -9.0880 H       2  LIG2        0.0268
     35    H      -73.7890  -88.6700   -7.9540 H       2  LIG2        0.0268
     36    H      -72.5760  -88.5240  -11.2250 H       2  LIG2        0.0233
     37    H      -73.6290  -89.8080  -10.6540 H       2  LIG2        0.0233
     38    H      -71.9980  -90.1900  -11.1830 H       2  LIG2        0.0233
     39    H      -69.5460  -85.3480   -6.7110 H       2  LIG2        0.0257
     40    H      -68.5990  -86.2180   -5.5130 H       2  LIG2        0.0257
     41    H      -70.3420  -86.3770   -5.5290 H       2  LIG2        0.0257
     42    H      -68.4970  -88.5740   -5.7720 H       2  LIG2        0.2102
@<TRIPOS>BOND
     1    33    13    1
     2    31    13    1
     3    32    13    1
     4    13     3    1
     5    36    15    1
     6    38    15    1
     7     3    12    1
     8     3     2    1
     9     3     4    1
    10    29    12    1
    11    17     2    1
    12    28    12    1
    13    18     4    1
    14    37    15    1
    15    15     8    1
    16    12    30    1
    17     2     4    1
    18     2     5    1
    19     4     7    1
    20     8     5    1
    21     8    23    1
    22     8    14    1
    23    22     7    1
    24    34    14    1
    25     5    19    1
    26     5     6    1
    27     7    21    1
    28     7    11    1
    29    20     6    1
    30    27    11    1
    31    14    35    1
    32    14    10    1
    33     6    10    1
    34     6     9    1
    35    11    26    1
    36    11     9    1
    37    10    25    1
    38    10    24    1
    39     9     1    1
    40     9    16    1
    41    39    16    1
    42     1    42    1
    43    16    41    1
    44    16    40    1
@<TRIPOS>MOLECULE
11996452_4_run_7.pdb
 42 44 0 0 0
SMALL
GASTEIGER

@<TRIPOS>ATOM
      1    O      -64.6770  -78.1380  -12.3850 O.3     2  LIG2       -0.3886
      2    C      -61.8480  -80.6730  -13.8490 C.3     2  LIG2       -0.0289
      3    C      -62.4960  -81.7250  -14.7290 C.3     2  LIG2       -0.0284
      4    C      -62.8500  -81.6720  -13.2580 C.3     2  LIG2       -0.0319
      5    C      -62.2450  -79.1740  -13.8690 C.3     2  LIG2       -0.0294
      6    C      -62.2790  -78.5920  -12.4280 C.3     2  LIG2       -0.0090
      7    C      -64.1990  -81.1540  -12.7080 C.3     2  LIG2       -0.0468
      8    C      -61.3480  -78.2320  -14.7240 C.3     2  LIG2       -0.0404
      9    C      -63.6340  -78.7720  -11.6610 C.3     2  LIG2        0.0664
     10    C      -61.7940  -77.1390  -12.5960 C.3     2  LIG2       -0.0471
     11    C      -64.0560  -80.2590  -11.4560 C.3     2  LIG2       -0.0237
     12    C      -63.5220  -81.3400  -15.8200 C.3     2  LIG2       -0.0593
     13    C      -61.5900  -82.8840  -15.1880 C.3     2  LIG2       -0.0593
     14    C      -60.7930  -77.1870  -13.7450 C.3     2  LIG2       -0.0498
     15    C      -60.2420  -78.9090  -15.5600 C.3     2  LIG2       -0.0621
     16    C      -63.5980  -78.0810  -10.2760 C.3     2  LIG2       -0.0358
     17    H      -60.8060  -80.8150  -13.5550 H       2  LIG2        0.0312
     18    H      -62.4730  -82.4970  -12.6520 H       2  LIG2        0.0309
     19    H      -63.2440  -79.0700  -14.2870 H       2  LIG2        0.0310
     20    H      -61.5110  -79.0950  -11.8360 H       2  LIG2        0.0331
     21    H      -64.7920  -80.6380  -13.4600 H       2  LIG2        0.0269
     22    H      -64.7920  -82.0260  -12.4300 H       2  LIG2        0.0269
     23    H      -61.9910  -77.7020  -15.4280 H       2  LIG2        0.0301
     24    H      -62.6230  -76.4750  -12.8440 H       2  LIG2        0.0269
     25    H      -61.3280  -76.7560  -11.6860 H       2  LIG2        0.0269
     26    H      -65.0020  -80.2850  -10.9110 H       2  LIG2        0.0293
     27    H      -63.3390  -80.7370  -10.7850 H       2  LIG2        0.0293
     28    H      -64.1540  -82.1920  -16.0700 H       2  LIG2        0.0235
     29    H      -63.0120  -81.0300  -16.7330 H       2  LIG2        0.0235
     30    H      -64.1890  -80.5270  -15.5460 H       2  LIG2        0.0235
     31    H      -62.1760  -83.7770  -15.4080 H       2  LIG2        0.0235
     32    H      -60.8550  -83.1560  -14.4290 H       2  LIG2        0.0235
     33    H      -61.0390  -82.6140  -16.0890 H       2  LIG2        0.0235
     34    H      -59.8100  -77.4840  -13.3750 H       2  LIG2        0.0268
     35    H      -60.6800  -76.2080  -14.2130 H       2  LIG2        0.0268
     36    H      -59.5090  -79.4180  -14.9330 H       2  LIG2        0.0233
     37    H      -59.7030  -78.1750  -16.1590 H       2  LIG2        0.0233
     38    H      -60.6640  -79.6440  -16.2490 H       2  LIG2        0.0233
     39    H      -62.8070  -78.4950   -9.6500 H       2  LIG2        0.0257
     40    H      -64.5390  -78.2050   -9.7370 H       2  LIG2        0.0257
     41    H      -63.4220  -77.0080  -10.3580 H       2  LIG2        0.0257
     42    H      -65.4970  -78.2510  -11.8980 H       2  LIG2        0.2102
@<TRIPOS>BOND
     1    29    12    1
     2    38    15    1
     3    37    15    1
     4    33    13    1
     5    28    12    1
     6    12    30    1
     7    12     3    1
     8    15    36    1
     9    15     8    1
    10    23     8    1
    11    31    13    1
    12    13     3    1
    13    13    32    1
    14     3     2    1
    15     3     4    1
    16     8     5    1
    17     8    14    1
    18    19     5    1
    19    35    14    1
    20     5     2    1
    21     5     6    1
    22     2    17    1
    23     2     4    1
    24    14    34    1
    25    14    10    1
    26    21     7    1
    27     4     7    1
    28     4    18    1
    29    24    10    1
    30     7    22    1
    31     7    11    1
    32    10     6    1
    33    10    25    1
    34     6    20    1
    35     6     9    1
    36     1    42    1
    37     1     9    1
    38     9    11    1
    39     9    16    1
    40    11    26    1
    41    11    27    1
    42    41    16    1
    43    16    40    1
    44    16    39    1
@<TRIPOS>MOLECULE
11996452_4_run_21.pdb
 42 44 0 0 0
SMALL
GASTEIGER

@<TRIPOS>ATOM
      1    O      -71.0000  -85.9090   -6.9020 O.3     2  LIG2       -0.3886
      2    C      -69.5310  -89.5740   -7.8950 C.3     2  LIG2       -0.0289
      3    C      -68.7280  -89.4830   -9.1790 C.3     2  LIG2       -0.0284
      4    C      -70.2090  -89.1700   -9.2100 C.3     2  LIG2       -0.0319
      5    C      -69.4610  -88.5170   -6.7630 C.3     2  LIG2       -0.0294
      6    C      -70.8740  -88.2370   -6.1790 C.3     2  LIG2       -0.0090
      7    C      -70.7930  -87.7460   -9.3540 C.3     2  LIG2       -0.0468
      8    C      -68.5270  -88.8500   -5.5620 C.3     2  LIG2       -0.0404
      9    C      -71.7070  -87.1400   -6.9270 C.3     2  LIG2        0.0664
     10    C      -70.6210  -87.9770   -4.6820 C.3     2  LIG2       -0.0471
     11    C      -71.9970  -87.4710   -8.4230 C.3     2  LIG2       -0.0237
     12    C      -67.6670  -88.3780   -9.3860 C.3     2  LIG2       -0.0593
     13    C      -68.2830  -90.8200   -9.8020 C.3     2  LIG2       -0.0593
     14    C      -69.4330  -88.8630   -4.3230 C.3     2  LIG2       -0.0498
     15    C      -67.6750  -90.1300   -5.6900 C.3     2  LIG2       -0.0621
     16    C      -73.0560  -86.8690   -6.2190 C.3     2  LIG2       -0.0358
     17    H      -69.7860  -90.5640   -7.5140 H       2  LIG2        0.0312
     18    H      -70.8350  -89.9020   -9.7240 H       2  LIG2        0.0309
     19    H      -69.0830  -87.5800   -7.1650 H       2  LIG2        0.0310
     20    H      -71.4550  -89.1610   -6.2260 H       2  LIG2        0.0331
     21    H      -70.0450  -86.9680   -9.2230 H       2  LIG2        0.0269
     22    H      -71.1350  -87.6380  -10.3840 H       2  LIG2        0.0269
     23    H      -67.8280  -88.0210   -5.4400 H       2  LIG2        0.0301
     24    H      -70.3790  -86.9290   -4.5000 H       2  LIG2        0.0269
     25    H      -71.4910  -88.2230   -4.0710 H       2  LIG2        0.0269
     26    H      -72.5820  -86.6590   -8.8580 H       2  LIG2        0.0293
     27    H      -72.6570  -88.3400   -8.4680 H       2  LIG2        0.0293
     28    H      -67.4820  -88.2180  -10.4490 H       2  LIG2        0.0235
     29    H      -66.7200  -88.6660   -8.9290 H       2  LIG2        0.0235
     30    H      -67.9320  -87.4110   -8.9680 H       2  LIG2        0.0235
     31    H      -68.1300  -90.7200  -10.8770 H       2  LIG2        0.0235
     32    H      -69.0220  -91.6090   -9.6510 H       2  LIG2        0.0235
     33    H      -67.3480  -91.1640   -9.3590 H       2  LIG2        0.0235
     34    H      -69.7740  -89.8770   -4.1010 H       2  LIG2        0.0268
     35    H      -68.9170  -88.4940   -3.4350 H       2  LIG2        0.0268
     36    H      -68.2920  -91.0260   -5.7570 H       2  LIG2        0.0233
     37    H      -67.0210  -90.2500   -4.8260 H       2  LIG2        0.0233
     38    H      -67.0390  -90.0930   -6.5760 H       2  LIG2        0.0233
     39    H      -73.6660  -87.7720   -6.1750 H       2  LIG2        0.0257
     40    H      -73.6400  -86.1070   -6.7370 H       2  LIG2        0.0257
     41    H      -72.9190  -86.5180   -5.1960 H       2  LIG2        0.0257
     42    H      -71.4860  -85.2700   -7.4290 H       2  LIG2        0.2102
@<TRIPOS>BOND
     1    31    13    1
     2    28    12    1
     3    22     7    1
     4    13    32    1
     5    13    33    1
     6    13     3    1
     7    18     4    1
     8    12     3    1
     9    12    30    1
    10    12    29    1
    11     7    21    1
    12     7     4    1
    13     7    11    1
    14     4     3    1
    15     4     2    1
    16     3     2    1
    17    26    11    1
    18    27    11    1
    19    11     9    1
    20     2    17    1
    21     2     5    1
    22    42     1    1
    23    19     5    1
    24     9     1    1
    25     9    16    1
    26     9     6    1
    27     5     6    1
    28     5     8    1
    29    40    16    1
    30    38    15    1
    31    20     6    1
    32    16    39    1
    33    16    41    1
    34     6    10    1
    35    36    15    1
    36    15     8    1
    37    15    37    1
    38     8    23    1
    39     8    14    1
    40    10    24    1
    41    10    14    1
    42    10    25    1
    43    14    34    1
    44    14    35    1
@<TRIPOS>MOLECULE
11996452_4_run_13.pdb
 42 44 0 0 0
SMALL
GASTEIGER

@<TRIPOS>ATOM
      1    O      -70.0390  -85.6590   -7.9060 O.3     2  LIG2       -0.3886
      2    C      -70.9590  -89.5580   -8.6330 C.3     2  LIG2       -0.0289
      3    C      -72.1380  -89.6460   -9.5840 C.3     2  LIG2       -0.0284
      4    C      -72.3320  -89.0100   -8.2240 C.3     2  LIG2       -0.0319
      5    C      -69.7960  -88.5460   -8.8000 C.3     2  LIG2       -0.0294
      6    C      -69.3730  -87.9580   -7.4240 C.3     2  LIG2       -0.0090
      7    C      -72.5020  -87.4910   -7.9920 C.3     2  LIG2       -0.0468
      8    C      -68.5050  -89.0820   -9.4850 C.3     2  LIG2       -0.0404
      9    C      -70.1820  -86.7010   -6.9510 C.3     2  LIG2        0.0664
     10    C      -67.8500  -87.7640   -7.5470 C.3     2  LIG2       -0.0471
     11    C      -71.7100  -86.9560   -6.7770 C.3     2  LIG2       -0.0237
     12    C      -72.1880  -88.8070  -10.8810 C.3     2  LIG2       -0.0593
     13    C      -72.7430  -91.0470   -9.7930 C.3     2  LIG2       -0.0593
     14    C      -67.3810  -88.8950   -8.4570 C.3     2  LIG2       -0.0498
     15    C      -68.5700  -90.5200  -10.0410 C.3     2  LIG2       -0.0621
     16    C      -69.6280  -86.1360   -5.6210 C.3     2  LIG2       -0.0358
     17    H      -70.6390  -90.4670   -8.1200 H       2  LIG2        0.0312
     18    H      -72.9360  -89.5820   -7.5180 H       2  LIG2        0.0309
     19    H      -70.1240  -87.7160   -9.4220 H       2  LIG2        0.0310
     20    H      -69.5140  -88.7290   -6.6630 H       2  LIG2        0.0331
     21    H      -72.2620  -86.9000   -8.8740 H       2  LIG2        0.0269
     22    H      -73.5610  -87.3070   -7.8090 H       2  LIG2        0.0269
     23    H      -68.2780  -88.4300  -10.3320 H       2  LIG2        0.0301
     24    H      -67.6110  -86.7970   -7.9920 H       2  LIG2        0.0269
     25    H      -67.3520  -87.8100   -6.5770 H       2  LIG2        0.0269
     26    H      -72.1860  -86.0320   -6.4430 H       2  LIG2        0.0293
     27    H      -71.8560  -87.6550   -5.9510 H       2  LIG2        0.0293
     28    H      -73.2170  -88.6900  -11.2230 H       2  LIG2        0.0235
     29    H      -71.6320  -89.3010  -11.6790 H       2  LIG2        0.0235
     30    H      -71.7750  -87.8060  -10.7890 H       2  LIG2        0.0235
     31    H      -73.7890  -90.9830  -10.0920 H       2  LIG2        0.0235
     32    H      -72.7010  -91.6520   -8.8850 H       2  LIG2        0.0235
     33    H      -72.2040  -91.5930  -10.5680 H       2  LIG2        0.0235
     34    H      -67.2290  -89.8070   -7.8760 H       2  LIG2        0.0268
     35    H      -66.4290  -88.6520   -8.9320 H       2  LIG2        0.0268
     36    H      -68.7340  -91.2550   -9.2530 H       2  LIG2        0.0233
     37    H      -67.6390  -90.7840  -10.5440 H       2  LIG2        0.0233
     38    H      -69.3740  -90.6240  -10.7710 H       2  LIG2        0.0233
     39    H      -69.6810  -86.8800   -4.8250 H       2  LIG2        0.0257
     40    H      -70.1880  -85.2610   -5.2870 H       2  LIG2        0.0257
     41    H      -68.5860  -85.8270   -5.7090 H       2  LIG2        0.0257
     42    H      -70.7930  -85.0700   -7.8270 H       2  LIG2        0.2102
@<TRIPOS>BOND
     1    29    12    1
     2    28    12    1
     3    12    30    1
     4    12     3    1
     5    38    15    1
     6    33    13    1
     7    37    15    1
     8    23     8    1
     9    31    13    1
    10    15     8    1
    11    15    36    1
    12    13     3    1
    13    13    32    1
    14     3     2    1
    15     3     4    1
    16     8     5    1
    17     8    14    1
    18    19     5    1
    19    35    14    1
    20    21     7    1
    21     5     2    1
    22     5     6    1
    23     2     4    1
    24     2    17    1
    25    14    34    1
    26    14    10    1
    27     4     7    1
    28     4    18    1
    29     7    22    1
    30     7    11    1
    31    24    10    1
    32     1    42    1
    33     1     9    1
    34    10     6    1
    35    10    25    1
    36     6     9    1
    37     6    20    1
    38     9    11    1
    39     9    16    1
    40    11    26    1
    41    11    27    1
    42    41    16    1
    43    16    40    1
    44    16    39    1
@<TRIPOS>MOLECULE
11996452_4_run_12.pdb
 42 44 0 0 0
SMALL
GASTEIGER

@<TRIPOS>ATOM
      1    O      -70.6850  -86.5720   -9.9290 O.3     2  LIG2       -0.3886
      2    C      -69.3460  -88.4840   -6.5930 C.3     2  LIG2       -0.0289
      3    C      -67.9940  -87.9310   -6.1830 C.3     2  LIG2       -0.0284
      4    C      -68.1310  -88.6340   -7.5170 C.3     2  LIG2       -0.0319
      5    C      -70.5220  -87.5990   -7.0810 C.3     2  LIG2       -0.0294
      6    C      -71.2620  -88.2700   -8.2720 C.3     2  LIG2       -0.0090
      7    C      -68.1270  -87.9120   -8.8840 C.3     2  LIG2       -0.0468
      8    C      -71.6000  -87.2340   -6.0190 C.3     2  LIG2       -0.0404
      9    C      -70.6640  -87.9720   -9.6910 C.3     2  LIG2        0.0664
     10    C      -72.7370  -87.8750   -8.0730 C.3     2  LIG2       -0.0471
     11    C      -69.1900  -88.4450   -9.8720 C.3     2  LIG2       -0.0237
     12    C      -67.7400  -86.4090   -6.0970 C.3     2  LIG2       -0.0593
     13    C      -67.2550  -88.6920   -5.0660 C.3     2  LIG2       -0.0593
     14    C      -72.9230  -87.7930   -6.5610 C.3     2  LIG2       -0.0498
     15    C      -71.3160  -87.6800   -4.5700 C.3     2  LIG2       -0.0621
     16    C      -71.5200  -88.6060  -10.8130 C.3     2  LIG2       -0.0358
     17    H      -69.6960  -89.4010   -6.1160 H       2  LIG2        0.0312
     18    H      -67.6450  -89.6080   -7.5890 H       2  LIG2        0.0309
     19    H      -70.1350  -86.6450   -7.4330 H       2  LIG2        0.0310
     20    H      -71.2230  -89.3530   -8.1340 H       2  LIG2        0.0331
     21    H      -68.2240  -86.8320   -8.7910 H       2  LIG2        0.0269
     22    H      -67.1440  -88.0700   -9.3310 H       2  LIG2        0.0269
     23    H      -71.6960  -86.1460   -5.9970 H       2  LIG2        0.0301
     24    H      -72.9510  -86.9090   -8.5330 H       2  LIG2        0.0269
     25    H      -73.4190  -88.6050   -8.5120 H       2  LIG2        0.0269
     26    H      -68.8620  -88.2020  -10.8850 H       2  LIG2        0.0293
     27    H      -69.1650  -89.5360   -9.8300 H       2  LIG2        0.0293
     28    H      -66.6750  -86.1920   -6.1790 H       2  LIG2        0.0235
     29    H      -68.0820  -86.0170   -5.1380 H       2  LIG2        0.0235
     30    H      -68.2370  -85.8230   -6.8660 H       2  LIG2        0.0235
     31    H      -66.1780  -88.5420   -5.1340 H       2  LIG2        0.0235
     32    H      -67.4370  -89.7670   -5.1120 H       2  LIG2        0.0235
     33    H      -67.5810  -88.3520   -4.0820 H       2  LIG2        0.0235
     34    H      -73.1220  -88.7860   -6.1530 H       2  LIG2        0.0268
     35    H      -73.7720  -87.1590   -6.3010 H       2  LIG2        0.0268
     36    H      -71.2630  -88.7660   -4.4800 H       2  LIG2        0.0233
     37    H      -72.1000  -87.3370   -3.8960 H       2  LIG2        0.0233
     38    H      -70.3720  -87.2670   -4.2090 H       2  LIG2        0.0233
     39    H      -71.5760  -89.6900  -10.7000 H       2  LIG2        0.0257
     40    H      -71.1070  -88.4020  -11.8020 H       2  LIG2        0.0257
     41    H      -72.5420  -88.2250  -10.8140 H       2  LIG2        0.0257
     42    H      -70.5390  -86.4220  -10.8660 H       2  LIG2        0.2102
@<TRIPOS>BOND
     1    40    16    1
     2    26    11    1
     3    42     1    1
     4    41    16    1
     5    16    39    1
     6    16     9    1
     7     1     9    1
     8    11    27    1
     9    11     9    1
    10    11     7    1
    11     9     6    1
    12    22     7    1
    13     7    21    1
    14     7     4    1
    15    24    10    1
    16    25    10    1
    17     6    20    1
    18     6    10    1
    19     6     5    1
    20    10    14    1
    21    18     4    1
    22     4     2    1
    23     4     3    1
    24    19     5    1
    25     5     2    1
    26     5     8    1
    27    30    12    1
    28     2     3    1
    29     2    17    1
    30    14    35    1
    31    14    34    1
    32    14     8    1
    33     3    12    1
    34     3    13    1
    35    28    12    1
    36    12    29    1
    37     8    23    1
    38     8    15    1
    39    31    13    1
    40    32    13    1
    41    13    33    1
    42    15    36    1
    43    15    38    1
    44    15    37    1
@<TRIPOS>MOLECULE
11996452_4_run_24.pdb
 42 44 0 0 0
SMALL
GASTEIGER

@<TRIPOS>ATOM
      1    O      -70.5180  -90.7960  -10.8280 O.3     2  LIG2       -0.3886
      2    C      -69.2180  -88.1120   -8.0570 C.3     2  LIG2       -0.0289
      3    C      -70.4010  -87.4720   -7.3550 C.3     2  LIG2       -0.0284
      4    C      -70.2170  -87.2530   -8.8420 C.3     2  LIG2       -0.0319
      5    C      -69.1360  -89.6220   -8.3980 C.3     2  LIG2       -0.0294
      6    C      -68.5170  -89.8370   -9.8080 C.3     2  LIG2       -0.0090
      7    C      -71.0900  -87.9150   -9.9320 C.3     2  LIG2       -0.0468
      8    C      -68.3340  -90.5130   -7.4050 C.3     2  LIG2       -0.0404
      9    C      -69.5310  -89.7900  -11.0030 C.3     2  LIG2        0.0664
     10    C      -67.7080  -91.1400   -9.6710 C.3     2  LIG2       -0.0471
     11    C      -70.2830  -88.4320  -11.1460 C.3     2  LIG2       -0.0237
     12    C      -71.5660  -88.3270   -6.8050 C.3     2  LIG2       -0.0593
     13    C      -70.0850  -86.2830   -6.4290 C.3     2  LIG2       -0.0593
     14    C      -67.2040  -91.1430   -8.2310 C.3     2  LIG2       -0.0498
     15    C      -67.8210  -89.8230   -6.1240 C.3     2  LIG2       -0.0621
     16    C      -68.8380  -90.1060  -12.3500 C.3     2  LIG2       -0.0358
     17    H      -68.2300  -87.6730   -7.9080 H       2  LIG2        0.0312
     18    H      -69.9240  -86.2440   -9.1370 H       2  LIG2        0.0309
     19    H      -70.1380  -90.0440   -8.4140 H       2  LIG2        0.0310
     20    H      -67.7830  -89.0480   -9.9850 H       2  LIG2        0.0331
     21    H      -71.7170  -88.7150   -9.5440 H       2  LIG2        0.0269
     22    H      -71.7890  -87.1590  -10.2920 H       2  LIG2        0.0269
     23    H      -68.9870  -91.3270   -7.0810 H       2  LIG2        0.0301
     24    H      -68.3350  -92.0140   -9.8530 H       2  LIG2        0.0269
     25    H      -66.8760  -91.1810  -10.3770 H       2  LIG2        0.0269
     26    H      -70.9590  -88.4900  -12.0020 H       2  LIG2        0.0293
     27    H      -69.5610  -87.6590  -11.4180 H       2  LIG2        0.0293
     28    H      -72.4690  -87.7230   -6.7000 H       2  LIG2        0.0235
     29    H      -71.3190  -88.7220   -5.8190 H       2  LIG2        0.0235
     30    H      -71.8330  -89.1800   -7.4230 H       2  LIG2        0.0235
     31    H      -70.9470  -85.6230   -6.3290 H       2  LIG2        0.0235
     32    H      -69.2570  -85.6800   -6.8040 H       2  LIG2        0.0235
     33    H      -69.8080  -86.6280   -5.4330 H       2  LIG2        0.0235
     34    H      -66.2890  -90.5520   -8.1530 H       2  LIG2        0.0268
     35    H      -66.9670  -92.1540   -7.8960 H       2  LIG2        0.0268
     36    H      -67.1080  -89.0280   -6.3460 H       2  LIG2        0.0233
     37    H      -67.3180  -90.5370   -5.4720 H       2  LIG2        0.0233
     38    H      -68.6440  -89.3880   -5.5550 H       2  LIG2        0.0233
     39    H      -68.0450  -89.3870  -12.5620 H       2  LIG2        0.0257
     40    H      -69.5390  -90.0730  -13.1850 H       2  LIG2        0.0257
     41    H      -68.3880  -91.0990  -12.3560 H       2  LIG2        0.0257
     42    H      -70.0850  -91.6530  -10.8560 H       2  LIG2        0.2102
@<TRIPOS>BOND
     1    40    16    1
     2    39    16    1
     3    41    16    1
     4    16     9    1
     5    26    11    1
     6    27    11    1
     7    11     9    1
     8    11     7    1
     9     9     1    1
    10     9     6    1
    11    42     1    1
    12    25    10    1
    13    22     7    1
    14    20     6    1
    15     7    21    1
    16     7     4    1
    17    24    10    1
    18     6    10    1
    19     6     5    1
    20    10    14    1
    21    18     4    1
    22     4     2    1
    23     4     3    1
    24    19     5    1
    25     5     2    1
    26     5     8    1
    27    14    34    1
    28    14    35    1
    29    14     8    1
    30     2    17    1
    31     2     3    1
    32    30    12    1
    33     8    23    1
    34     8    15    1
    35     3    12    1
    36     3    13    1
    37    12    28    1
    38    12    29    1
    39    32    13    1
    40    13    31    1
    41    13    33    1
    42    36    15    1
    43    15    38    1
    44    15    37    1
