@<TRIPOS>MOLECULE
11996452_7_run_3.pdb
 42 44 0 0 0
SMALL
GASTEIGER

@<TRIPOS>ATOM
      1    O      -70.5380  -86.1590   -8.0040 O.3     2  LIG2       -0.3886
      2    C      -69.6520  -88.5000   -9.5740 C.3     2  LIG2       -0.0289
      3    C      -70.1410  -89.3410  -10.7460 C.3     2  LIG2       -0.0284
      4    C      -71.0790  -88.3410  -10.1140 C.3     2  LIG2       -0.0319
      5    C      -69.4520  -89.0690   -8.1370 C.3     2  LIG2       -0.0294
      6    C      -70.1250  -88.3070   -6.9420 C.3     2  LIG2       -0.0090
      7    C      -72.2310  -88.6960   -9.1580 C.3     2  LIG2       -0.0468
      8    C      -67.9500  -89.2100   -7.7840 C.3     2  LIG2       -0.0404
      9    C      -71.1720  -87.1720   -7.2390 C.3     2  LIG2        0.0664
     10    C      -68.9530  -87.9000   -6.0270 C.3     2  LIG2       -0.0471
     11    C      -72.4300  -87.6620   -8.0290 C.3     2  LIG2       -0.0237
     12    C      -69.5660  -88.9810  -12.1290 C.3     2  LIG2       -0.0593
     13    C      -70.3990  -90.8600  -10.6170 C.3     2  LIG2       -0.0593
     14    C      -67.8600  -88.9350   -6.2830 C.3     2  LIG2       -0.0498
     15    C      -67.3440  -90.5600   -8.2070 C.3     2  LIG2       -0.0621
     16    C      -71.6570  -86.4780   -5.9420 C.3     2  LIG2       -0.0358
     17    H      -68.9740  -87.6700   -9.7820 H       2  LIG2        0.0312
     18    H      -71.3140  -87.4580  -10.7070 H       2  LIG2        0.0309
     19    H      -69.8800  -90.0690   -8.0950 H       2  LIG2        0.0310
     20    H      -70.6820  -89.0550   -6.3730 H       2  LIG2        0.0331
     21    H      -73.1530  -88.7810   -9.7320 H       2  LIG2        0.0269
     22    H      -72.0880  -89.6750   -8.7030 H       2  LIG2        0.0269
     23    H      -67.3820  -88.4190   -8.2790 H       2  LIG2        0.0301
     24    H      -68.5900  -86.9020   -6.2780 H       2  LIG2        0.0269
     25    H      -69.2380  -87.8870   -4.9750 H       2  LIG2        0.0269
     26    H      -72.9680  -86.8010   -8.4290 H       2  LIG2        0.0293
     27    H      -73.1240  -88.1220   -7.3240 H       2  LIG2        0.0293
     28    H      -70.2490  -89.2730  -12.9260 H       2  LIG2        0.0235
     29    H      -68.6140  -89.4840  -12.3000 H       2  LIG2        0.0235
     30    H      -69.3880  -87.9090  -12.2330 H       2  LIG2        0.0235
     31    H      -71.0750  -91.2010  -11.4010 H       2  LIG2        0.0235
     32    H      -70.8450  -91.1650   -9.6730 H       2  LIG2        0.0235
     33    H      -69.4670  -91.4180  -10.7210 H       2  LIG2        0.0235
     34    H      -68.0510  -89.8430   -5.7060 H       2  LIG2        0.0268
     35    H      -66.8790  -88.5590   -5.9900 H       2  LIG2        0.0268
     36    H      -67.8550  -91.3980   -7.7290 H       2  LIG2        0.0233
     37    H      -66.2890  -90.6190   -7.9360 H       2  LIG2        0.0233
     38    H      -67.4140  -90.7010   -9.2860 H       2  LIG2        0.0233
     39    H      -72.1160  -87.1920   -5.2590 H       2  LIG2        0.0257
     40    H      -72.3970  -85.7040   -6.1520 H       2  LIG2        0.0257
     41    H      -70.8400  -85.9950   -5.4050 H       2  LIG2        0.0257
     42    H      -71.1710  -85.4540   -8.1570 H       2  LIG2        0.2102
@<TRIPOS>BOND
     1    28    12    1
     2    29    12    1
     3    30    12    1
     4    12     3    1
     5    31    13    1
     6     3    13    1
     7     3     4    1
     8     3     2    1
     9    33    13    1
    10    18     4    1
    11    13    32    1
    12     4     2    1
    13     4     7    1
    14    17     2    1
    15    21     7    1
    16     2     5    1
    17    38    15    1
    18     7    22    1
    19     7    11    1
    20    26    11    1
    21    23     8    1
    22    15    37    1
    23    15     8    1
    24    15    36    1
    25    42     1    1
    26     5    19    1
    27     5     8    1
    28     5     6    1
    29    11    27    1
    30    11     9    1
    31     1     9    1
    32     8    14    1
    33     9     6    1
    34     9    16    1
    35     6    20    1
    36     6    10    1
    37    14    10    1
    38    14    35    1
    39    14    34    1
    40    24    10    1
    41    40    16    1
    42    10    25    1
    43    16    41    1
    44    16    39    1
@<TRIPOS>MOLECULE
11996452_7_run_7.pdb
 42 44 0 0 0
SMALL
GASTEIGER

@<TRIPOS>ATOM
      1    O      -64.7550  -77.6960  -12.9270 O.3     2  LIG2       -0.3886
      2    C      -63.0320  -79.7040  -14.2440 C.3     2  LIG2       -0.0289
      3    C      -62.8880  -81.2190  -14.3100 C.3     2  LIG2       -0.0284
      4    C      -63.8080  -80.6090  -13.2800 C.3     2  LIG2       -0.0319
      5    C      -61.9300  -78.7640  -13.6690 C.3     2  LIG2       -0.0294
      6    C      -62.3500  -77.7210  -12.5730 C.3     2  LIG2       -0.0090
      7    C      -63.4860  -80.4740  -11.7820 C.3     2  LIG2       -0.0468
      8    C      -61.2180  -77.9670  -14.7910 C.3     2  LIG2       -0.0404
      9    C      -63.7720  -77.8230  -11.9110 C.3     2  LIG2        0.0664
     10    C      -62.0030  -76.3500  -13.1870 C.3     2  LIG2       -0.0471
     11    C      -64.0230  -79.1690  -11.1560 C.3     2  LIG2       -0.0237
     12    C      -63.5510  -81.9130  -15.5140 C.3     2  LIG2       -0.0593
     13    C      -61.5890  -81.9400  -13.8830 C.3     2  LIG2       -0.0593
     14    C      -60.8630  -76.6180  -14.1650 C.3     2  LIG2       -0.0498
     15    C      -60.0130  -78.7070  -15.3980 C.3     2  LIG2       -0.0621
     16    C      -64.0360  -76.6590  -10.9250 C.3     2  LIG2       -0.0358
     17    H      -63.6310  -79.2090  -15.0110 H       2  LIG2        0.0312
     18    H      -64.8770  -80.7480  -13.4440 H       2  LIG2        0.0309
     19    H      -61.1700  -79.3730  -13.1840 H       2  LIG2        0.0310
     20    H      -61.6490  -77.8450  -11.7440 H       2  LIG2        0.0331
     21    H      -63.9090  -81.3260  -11.2500 H       2  LIG2        0.0269
     22    H      -62.4150  -80.5250  -11.5950 H       2  LIG2        0.0269
     23    H      -61.9240  -77.7590  -15.5970 H       2  LIG2        0.0301
     24    H      -62.8610  -75.9310  -13.7150 H       2  LIG2        0.0269
     25    H      -61.7040  -75.6240  -12.4290 H       2  LIG2        0.0269
     26    H      -65.0910  -79.2840  -10.9610 H       2  LIG2        0.0293
     27    H      -63.5660  -79.1020  -10.1680 H       2  LIG2        0.0293
     28    H      -63.8050  -82.9470  -15.2800 H       2  LIG2        0.0235
     29    H      -62.8870  -81.9170  -16.3790 H       2  LIG2        0.0235
     30    H      -64.4740  -81.4160  -15.8180 H       2  LIG2        0.0235
     31    H      -61.7930  -82.9840  -13.6450 H       2  LIG2        0.0235
     32    H      -61.1010  -81.5150  -13.0100 H       2  LIG2        0.0235
     33    H      -60.8570  -81.9250  -14.6930 H       2  LIG2        0.0235
     34    H      -59.9100  -76.6700  -13.6360 H       2  LIG2        0.0268
     35    H      -60.7840  -75.8260  -14.9110 H       2  LIG2        0.0268
     36    H      -59.2550  -78.9280  -14.6450 H       2  LIG2        0.0233
     37    H      -59.5390  -78.1110  -16.1790 H       2  LIG2        0.0233
     38    H      -60.3190  -79.6530  -15.8480 H       2  LIG2        0.0233
     39    H      -63.2920  -76.6400  -10.1280 H       2  LIG2        0.0257
     40    H      -65.0170  -76.7440  -10.4540 H       2  LIG2        0.0257
     41    H      -64.0080  -75.6870  -11.4190 H       2  LIG2        0.0257
     42    H      -65.6210  -77.7480  -12.5180 H       2  LIG2        0.2102
@<TRIPOS>BOND
     1    29    12    1
     2    37    15    1
     3    38    15    1
     4    30    12    1
     5    23     8    1
     6    12    28    1
     7    12     3    1
     8    15     8    1
     9    15    36    1
    10    17     2    1
    11    35    14    1
    12     8    14    1
    13     8     5    1
    14    33    13    1
    15     3     2    1
    16     3    13    1
    17     3     4    1
    18     2     5    1
    19     2     4    1
    20    14    34    1
    21    14    10    1
    22    13    31    1
    23    13    32    1
    24    24    10    1
    25     5    19    1
    26     5     6    1
    27    18     4    1
    28     4     7    1
    29    10     6    1
    30    10    25    1
    31     1    42    1
    32     1     9    1
    33     6     9    1
    34     6    20    1
    35     9    11    1
    36     9    16    1
    37     7    22    1
    38     7    21    1
    39     7    11    1
    40    41    16    1
    41    11    26    1
    42    11    27    1
    43    16    40    1
    44    16    39    1
@<TRIPOS>MOLECULE
11996452_7_run_6.pdb
 42 44 0 0 0
SMALL
GASTEIGER

@<TRIPOS>ATOM
      1    O      -66.7890  -89.0230   -6.7250 O.3     2  LIG2       -0.3886
      2    C      -69.2250  -89.1360   -8.3940 C.3     2  LIG2       -0.0289
      3    C      -69.8810  -88.3370   -9.5130 C.3     2  LIG2       -0.0284
      4    C      -68.7020  -87.7460   -8.7770 C.3     2  LIG2       -0.0319
      5    C      -69.8710  -89.3350   -6.9910 C.3     2  LIG2       -0.0294
      6    C      -69.0050  -88.9970   -5.7260 C.3     2  LIG2       -0.0090
      7    C      -68.7940  -86.6460   -7.7060 C.3     2  LIG2       -0.0468
      8    C      -70.3880  -90.7830   -6.8010 C.3     2  LIG2       -0.0404
      9    C      -67.6390  -88.2390   -5.9030 C.3     2  LIG2        0.0664
     10    C      -68.9290  -90.3210   -4.9400 C.3     2  LIG2       -0.0471
     11    C      -67.7800  -86.8250   -6.5560 C.3     2  LIG2       -0.0237
     12    C      -69.6290  -88.8390  -10.9460 C.3     2  LIG2       -0.0593
     13    C      -71.2940  -87.7250   -9.3650 C.3     2  LIG2       -0.0593
     14    C      -70.1930  -91.0900   -5.3160 C.3     2  LIG2       -0.0498
     15    C      -71.8320  -90.9890   -7.2940 C.3     2  LIG2       -0.0621
     16    C      -66.8890  -88.0770   -4.5580 C.3     2  LIG2       -0.0358
     17    H      -68.5800  -89.9730   -8.6690 H       2  LIG2        0.0312
     18    H      -67.7690  -87.6770   -9.3370 H       2  LIG2        0.0309
     19    H      -70.7360  -88.6790   -6.9090 H       2  LIG2        0.0310
     20    H      -69.6110  -88.3330   -5.1050 H       2  LIG2        0.0331
     21    H      -68.6300  -85.6770   -8.1790 H       2  LIG2        0.0269
     22    H      -69.7910  -86.5870   -7.2750 H       2  LIG2        0.0269
     23    H      -69.7460  -91.4750   -7.3490 H       2  LIG2        0.0301
     24    H      -68.0430  -90.8920   -5.2220 H       2  LIG2        0.0269
     25    H      -68.8800  -90.1570   -3.8620 H       2  LIG2        0.0269
     26    H      -66.8000  -86.4790   -6.8910 H       2  LIG2        0.0293
     27    H      -68.0760  -86.1140   -5.7840 H       2  LIG2        0.0293
     28    H      -69.7180  -88.0270  -11.6680 H       2  LIG2        0.0235
     29    H      -70.3450  -89.6130  -11.2220 H       2  LIG2        0.0235
     30    H      -68.6310  -89.2660  -11.0630 H       2  LIG2        0.0235
     31    H      -71.4320  -86.9090  -10.0750 H       2  LIG2        0.0235
     32    H      -71.5090  -87.3160   -8.3820 H       2  LIG2        0.0235
     33    H      -72.0600  -88.4730   -9.5710 H       2  LIG2        0.0235
     34    H      -71.0430  -90.7400   -4.7280 H       2  LIG2        0.0268
     35    H      -70.0790  -92.1590   -5.1280 H       2  LIG2        0.0268
     36    H      -72.5330  -90.3370   -6.7690 H       2  LIG2        0.0233
     37    H      -72.1570  -92.0180   -7.1380 H       2  LIG2        0.0233
     38    H      -71.9160  -90.7760   -8.3600 H       2  LIG2        0.0233
     39    H      -67.4900  -87.5270   -3.8330 H       2  LIG2        0.0257
     40    H      -65.9510  -87.5340   -4.6820 H       2  LIG2        0.0257
     41    H      -66.6390  -89.0390   -4.1080 H       2  LIG2        0.0257
     42    H      -66.0050  -88.5090   -6.9270 H       2  LIG2        0.2102
@<TRIPOS>BOND
     1    28    12    1
     2    29    12    1
     3    30    12    1
     4    12     3    1
     5    31    13    1
     6    33    13    1
     7     3    13    1
     8     3     4    1
     9     3     2    1
    10    13    32    1
    11    18     4    1
    12     4     2    1
    13     4     7    1
    14    17     2    1
    15     2     5    1
    16    38    15    1
    17    21     7    1
    18     7    22    1
    19     7    11    1
    20    23     8    1
    21    15    37    1
    22    15     8    1
    23    15    36    1
    24     5    19    1
    25     5     8    1
    26     5     6    1
    27    42     1    1
    28    26    11    1
    29     8    14    1
    30     1     9    1
    31    11     9    1
    32    11    27    1
    33     9     6    1
    34     9    16    1
    35     6    20    1
    36     6    10    1
    37    14    35    1
    38    14    10    1
    39    14    34    1
    40    24    10    1
    41    10    25    1
    42    40    16    1
    43    16    41    1
    44    16    39    1
@<TRIPOS>MOLECULE
11996452_7_run_2.pdb
 42 44 0 0 0
SMALL
GASTEIGER

@<TRIPOS>ATOM
      1    O      -67.5350  -87.7070   -7.9930 O.3     2  LIG2       -0.3886
      2    C      -70.0880  -87.0900   -6.6380 C.3     2  LIG2       -0.0289
      3    C      -70.6170  -86.9170   -5.2200 C.3     2  LIG2       -0.0284
      4    C      -69.2310  -87.4810   -5.4280 C.3     2  LIG2       -0.0319
      5    C      -70.5790  -88.2100   -7.6040 C.3     2  LIG2       -0.0294
      6    C      -69.4970  -89.1100   -8.2990 C.3     2  LIG2       -0.0090
      7    C      -68.8550  -88.9660   -5.2890 C.3     2  LIG2       -0.0468
      8    C      -71.4730  -87.6380   -8.7330 C.3     2  LIG2       -0.0404
      9    C      -68.0020  -89.0360   -7.8180 C.3     2  LIG2        0.0664
     10    C      -69.7160  -88.8890   -9.8090 C.3     2  LIG2       -0.0471
     11    C      -67.8000  -89.4290   -6.3170 C.3     2  LIG2       -0.0237
     12    C      -70.7100  -85.4700   -4.7010 C.3     2  LIG2       -0.0593
     13    C      -71.7530  -87.7990   -4.6540 C.3     2  LIG2       -0.0593
     14    C      -71.1880  -88.5120   -9.9550 C.3     2  LIG2       -0.0498
     15    C      -72.9630  -87.5620   -8.3560 C.3     2  LIG2       -0.0621
     16    C      -67.0720  -89.9240   -8.6790 C.3     2  LIG2       -0.0358
     17    H      -69.7620  -86.1990   -7.1790 H       2  LIG2        0.0312
     18    H      -68.4000  -86.8330   -5.1490 H       2  LIG2        0.0309
     19    H      -71.1930  -88.9110   -7.0420 H       2  LIG2        0.0310
     20    H      -69.7940  -90.1460   -8.1180 H       2  LIG2        0.0331
     21    H      -68.4740  -89.1420   -4.2830 H       2  LIG2        0.0269
     22    H      -69.7260  -89.6120   -5.3800 H       2  LIG2        0.0269
     23    H      -71.1400  -86.6300   -8.9880 H       2  LIG2        0.0301
     24    H      -69.0830  -88.0820  -10.1810 H       2  LIG2        0.0269
     25    H      -69.4830  -89.7800  -10.3930 H       2  LIG2        0.0269
     26    H      -66.8140  -89.1010   -5.9840 H       2  LIG2        0.0293
     27    H      -67.7720  -90.5170   -6.2450 H       2  LIG2        0.0293
     28    H      -70.6470  -85.4400   -3.6130 H       2  LIG2        0.0235
     29    H      -71.6530  -85.0090   -4.9960 H       2  LIG2        0.0235
     30    H      -69.9070  -84.8410   -5.0890 H       2  LIG2        0.0235
     31    H      -71.7340  -87.7930   -3.5640 H       2  LIG2        0.0235
     32    H      -71.7100  -88.8420   -4.9560 H       2  LIG2        0.0235
     33    H      -72.7260  -87.4190   -4.9670 H       2  LIG2        0.0235
     34    H      -71.8140  -89.4060   -9.9520 H       2  LIG2        0.0268
     35    H      -71.3720  -87.9830  -10.8910 H       2  LIG2        0.0268
     36    H      -73.3670  -88.5450   -8.1090 H       2  LIG2        0.0233
     37    H      -73.5560  -87.1590   -9.1790 H       2  LIG2        0.0233
     38    H      -73.1170  -86.9140   -7.4930 H       2  LIG2        0.0233
     39    H      -67.3850  -90.9680   -8.6510 H       2  LIG2        0.0257
     40    H      -66.0390  -89.8840   -8.3290 H       2  LIG2        0.0257
     41    H      -67.0620  -89.6170   -9.7250 H       2  LIG2        0.0257
     42    H      -66.6270  -87.6620   -7.6860 H       2  LIG2        0.2102
@<TRIPOS>BOND
     1    35    14    1
     2    25    10    1
     3    24    10    1
     4    14    34    1
     5    14    10    1
     6    14     8    1
     7    10     6    1
     8    41    16    1
     9    37    15    1
    10    23     8    1
    11     8    15    1
    12     8     5    1
    13    16    39    1
    14    16    40    1
    15    16     9    1
    16    15    36    1
    17    15    38    1
    18     6    20    1
    19     6     9    1
    20     6     5    1
    21     1     9    1
    22     1    42    1
    23     9    11    1
    24     5    19    1
    25     5     2    1
    26    17     2    1
    27     2     4    1
    28     2     3    1
    29    11    27    1
    30    11    26    1
    31    11     7    1
    32     4     7    1
    33     4     3    1
    34     4    18    1
    35    22     7    1
    36     7    21    1
    37     3    12    1
    38     3    13    1
    39    30    12    1
    40    29    12    1
    41    33    13    1
    42    32    13    1
    43    12    28    1
    44    13    31    1
@<TRIPOS>MOLECULE
11996452_7_run_21.pdb
 42 44 0 0 0
SMALL
GASTEIGER

@<TRIPOS>ATOM
      1    O      -61.1630  -82.0090  -13.6370 O.3     2  LIG2       -0.3886
      2    C      -62.1570  -79.7350  -12.0330 C.3     2  LIG2       -0.0289
      3    C      -63.2110  -79.4630  -10.9670 C.3     2  LIG2       -0.0284
      4    C      -63.2200  -80.7870  -11.6930 C.3     2  LIG2       -0.0319
      5    C      -62.1770  -79.0760  -13.4450 C.3     2  LIG2       -0.0294
      6    C      -62.0610  -80.0140  -14.6980 C.3     2  LIG2       -0.0090
      7    C      -64.2050  -81.1710  -12.8110 C.3     2  LIG2       -0.0468
      8    C      -61.0680  -78.0030  -13.5880 C.3     2  LIG2       -0.0404
      9    C      -62.1880  -81.5700  -14.5150 C.3     2  LIG2        0.0664
     10    C      -60.7890  -79.5370  -15.4260 C.3     2  LIG2       -0.0471
     11    C      -63.5620  -82.0270  -13.9240 C.3     2  LIG2       -0.0237
     12    C      -62.7200  -79.4710   -9.5080 C.3     2  LIG2       -0.0593
     13    C      -64.3480  -78.4360  -11.1790 C.3     2  LIG2       -0.0593
     14    C      -60.6350  -78.0650  -15.0530 C.3     2  LIG2       -0.0498
     15    C      -61.5070  -76.6020  -13.1270 C.3     2  LIG2       -0.0621
     16    C      -61.9570  -82.3300  -15.8440 C.3     2  LIG2       -0.0358
     17    H      -61.1420  -79.9690  -11.7060 H       2  LIG2        0.0312
     18    H      -62.9210  -81.6590  -11.1110 H       2  LIG2        0.0309
     19    H      -63.1280  -78.5640  -13.5770 H       2  LIG2        0.0310
     20    H      -62.8860  -79.7450  -15.3620 H       2  LIG2        0.0331
     21    H      -65.0390  -81.7200  -12.3750 H       2  LIG2        0.0269
     22    H      -64.6520  -80.2930  -13.2730 H       2  LIG2        0.0269
     23    H      -60.1990  -78.2940  -12.9950 H       2  LIG2        0.0301
     24    H      -59.9150  -80.1010  -15.0960 H       2  LIG2        0.0269
     25    H      -60.8640  -79.6590  -16.5080 H       2  LIG2        0.0269
     26    H      -63.4850  -83.0590  -13.5760 H       2  LIG2        0.0293
     27    H      -64.2930  -82.0610  -14.7330 H       2  LIG2        0.0293
     28    H      -63.5310  -79.7230   -8.8230 H       2  LIG2        0.0235
     29    H      -62.3290  -78.4950   -9.2210 H       2  LIG2        0.0235
     30    H      -61.9230  -80.1990   -9.3460 H       2  LIG2        0.0235
     31    H      -65.1810  -78.6450  -10.5080 H       2  LIG2        0.0235
     32    H      -64.7600  -78.4190  -12.1850 H       2  LIG2        0.0235
     33    H      -63.9970  -77.4260  -10.9640 H       2  LIG2        0.0235
     34    H      -61.2770  -77.4420  -15.6790 H       2  LIG2        0.0268
     35    H      -59.6080  -77.7240  -15.1940 H       2  LIG2        0.0268
     36    H      -62.3640  -76.2410  -13.6990 H       2  LIG2        0.0233
     37    H      -60.7000  -75.8780  -13.2500 H       2  LIG2        0.0233
     38    H      -61.7880  -76.6050  -12.0740 H       2  LIG2        0.0233
     39    H      -62.6710  -82.0190  -16.6060 H       2  LIG2        0.0257
     40    H      -62.0650  -83.4080  -15.7150 H       2  LIG2        0.0257
     41    H      -60.9580  -82.1600  -16.2460 H       2  LIG2        0.0257
     42    H      -61.1970  -82.9660  -13.5860 H       2  LIG2        0.2102
@<TRIPOS>BOND
     1    39    16    1
     2    25    10    1
     3    41    16    1
     4    16    40    1
     5    16     9    1
     6    34    14    1
     7    10    24    1
     8    10    14    1
     9    10     6    1
    10    20     6    1
    11    35    14    1
    12    14     8    1
    13    27    11    1
    14     6     9    1
    15     6     5    1
    16     9    11    1
    17     9     1    1
    18    11    26    1
    19    11     7    1
    20    36    15    1
    21     1    42    1
    22     8     5    1
    23     8    15    1
    24     8    23    1
    25    19     5    1
    26     5     2    1
    27    22     7    1
    28    37    15    1
    29    15    38    1
    30     7    21    1
    31     7     4    1
    32    32    13    1
    33     2    17    1
    34     2     4    1
    35     2     3    1
    36     4    18    1
    37     4     3    1
    38    13     3    1
    39    13    33    1
    40    13    31    1
    41     3    12    1
    42    12    30    1
    43    12    29    1
    44    12    28    1
@<TRIPOS>MOLECULE
11996452_7_run_7.pdb
 42 44 0 0 0
SMALL
GASTEIGER

@<TRIPOS>ATOM
      1    O      -69.7410  -86.6870   -9.5960 O.3     2  LIG2       -0.3886
      2    C      -70.5480  -87.2170   -6.8030 C.3     2  LIG2       -0.0289
      3    C      -70.0410  -86.9360   -5.3950 C.3     2  LIG2       -0.0284
      4    C      -69.1380  -86.6590   -6.5730 C.3     2  LIG2       -0.0319
      5    C      -70.7010  -88.6530   -7.3880 C.3     2  LIG2       -0.0294
      6    C      -70.0430  -88.9570   -8.7800 C.3     2  LIG2       -0.0090
      7    C      -67.9570  -87.5450   -7.0050 C.3     2  LIG2       -0.0468
      8    C      -72.1890  -89.0680   -7.5000 C.3     2  LIG2       -0.0404
      9    C      -69.0510  -87.9130   -9.4120 C.3     2  LIG2        0.0664
     10    C      -71.2180  -89.3820   -9.6830 C.3     2  LIG2       -0.0471
     11    C      -67.7860  -87.6320   -8.5370 C.3     2  LIG2       -0.0237
     12    C      -70.6530  -85.7160   -4.6820 C.3     2  LIG2       -0.0593
     13    C      -69.7140  -88.0720   -4.3970 C.3     2  LIG2       -0.0593
     14    C      -72.2670  -89.9610   -8.7380 C.3     2  LIG2       -0.0498
     15    C      -72.7420  -89.7250   -6.2230 C.3     2  LIG2       -0.0621
     16    C      -68.5780  -88.3440  -10.8210 C.3     2  LIG2       -0.0358
     17    H      -71.2640  -86.5200   -7.2420 H       2  LIG2        0.0312
     18    H      -68.9510  -85.6100   -6.8010 H       2  LIG2        0.0309
     19    H      -70.2290  -89.3590   -6.7060 H       2  LIG2        0.0310
     20    H      -69.4440  -89.8620   -8.6490 H       2  LIG2        0.0331
     21    H      -67.0400  -87.1520   -6.5650 H       2  LIG2        0.0269
     22    H      -68.0490  -88.5570   -6.6140 H       2  LIG2        0.0269
     23    H      -72.7990  -88.1870   -7.7140 H       2  LIG2        0.0301
     24    H      -71.6270  -88.5240  -10.2190 H       2  LIG2        0.0269
     25    H      -70.9170  -90.1180  -10.4300 H       2  LIG2        0.0269
     26    H      -67.2920  -86.7250   -8.8900 H       2  LIG2        0.0293
     27    H      -67.0610  -88.4290   -8.7100 H       2  LIG2        0.0293
     28    H      -69.9690  -85.3160   -3.9320 H       2  LIG2        0.0235
     29    H      -71.5840  -85.9810   -4.1810 H       2  LIG2        0.0235
     30    H      -70.8790  -84.9050   -5.3770 H       2  LIG2        0.0235
     31    H      -69.0360  -87.7150   -3.6220 H       2  LIG2        0.0235
     32    H      -69.2410  -88.9430   -4.8430 H       2  LIG2        0.0235
     33    H      -70.6220  -88.4230   -3.9050 H       2  LIG2        0.0235
     34    H      -72.0280  -90.9970   -8.4900 H       2  LIG2        0.0268
     35    H      -73.2600  -89.9520   -9.1920 H       2  LIG2        0.0268
     36    H      -72.1870  -90.6280   -5.9630 H       2  LIG2        0.0233
     37    H      -73.7890  -90.0040   -6.3470 H       2  LIG2        0.0233
     38    H      -72.6820  -89.0430   -5.3740 H       2  LIG2        0.0233
     39    H      -68.0770  -89.3120  -10.7910 H       2  LIG2        0.0257
     40    H      -67.8760  -87.6260  -11.2480 H       2  LIG2        0.0257
     41    H      -69.4070  -88.4300  -11.5250 H       2  LIG2        0.0257
     42    H      -69.1190  -86.0360   -9.9290 H       2  LIG2        0.2102
@<TRIPOS>BOND
     1    41    16    1
     2    40    16    1
     3    16    39    1
     4    16     9    1
     5    25    10    1
     6    24    10    1
     7    42     1    1
     8    10     6    1
     9    10    14    1
    10     1     9    1
    11     9     6    1
    12     9    11    1
    13    35    14    1
    14    26    11    1
    15     6    20    1
    16     6     5    1
    17    14    34    1
    18    14     8    1
    19    27    11    1
    20    11     7    1
    21    23     8    1
    22     8     5    1
    23     8    15    1
    24     5     2    1
    25     5    19    1
    26    17     2    1
    27     7    22    1
    28     7     4    1
    29     7    21    1
    30     2     4    1
    31     2     3    1
    32    18     4    1
    33     4     3    1
    34    37    15    1
    35    15    36    1
    36    15    38    1
    37     3    12    1
    38     3    13    1
    39    30    12    1
    40    32    13    1
    41    12    29    1
    42    12    28    1
    43    13    33    1
    44    13    31    1
@<TRIPOS>MOLECULE
11996452_7_run_22.pdb
 42 44 0 0 0
SMALL
GASTEIGER

@<TRIPOS>ATOM
      1    O      -69.3560  -87.4090  -10.9290 O.3     2  LIG2       -0.3886
      2    C      -69.2970  -87.4930   -7.9750 C.3     2  LIG2       -0.0289
      3    C      -68.2890  -87.7290   -6.8590 C.3     2  LIG2       -0.0284
      4    C      -67.8930  -88.0240   -8.2860 C.3     2  LIG2       -0.0319
      5    C      -70.5240  -88.4200   -8.2300 C.3     2  LIG2       -0.0294
      6    C      -70.7420  -88.9710   -9.6840 C.3     2  LIG2       -0.0090
      7    C      -67.7970  -89.4310   -8.9000 C.3     2  LIG2       -0.0468
      8    C      -71.8500  -87.7380   -7.8100 C.3     2  LIG2       -0.0404
      9    C      -69.6060  -88.7950  -10.7570 C.3     2  LIG2        0.0664
     10    C      -72.1290  -88.4420  -10.0980 C.3     2  LIG2       -0.0471
     11    C      -68.2590  -89.4890  -10.3720 C.3     2  LIG2       -0.0237
     12    C      -67.6820  -86.4690   -6.2130 C.3     2  LIG2       -0.0593
     13    C      -68.4530  -88.8720   -5.8300 C.3     2  LIG2       -0.0593
     14    C      -72.9000  -88.2570   -8.7940 C.3     2  LIG2       -0.0498
     15    C      -72.2160  -87.9660   -6.3320 C.3     2  LIG2       -0.0621
     16    C      -70.0390  -89.3190  -12.1480 C.3     2  LIG2       -0.0358
     17    H      -69.4910  -86.4650   -8.2860 H       2  LIG2        0.0312
     18    H      -67.1680  -87.3460   -8.7360 H       2  LIG2        0.0309
     19    H      -70.4200  -89.3120   -7.6160 H       2  LIG2        0.0310
     20    H      -70.8670  -90.0520   -9.5890 H       2  LIG2        0.0331
     21    H      -66.7660  -89.7770   -8.8350 H       2  LIG2        0.0269
     22    H      -68.3770  -90.1580   -8.3330 H       2  LIG2        0.0269
     23    H      -71.7760  -86.6610   -7.9750 H       2  LIG2        0.0301
     24    H      -72.0430  -87.4890  -10.6220 H       2  LIG2        0.0269
     25    H      -72.6500  -89.1320  -10.7630 H       2  LIG2        0.0269
     26    H      -67.4570  -89.1090  -11.0090 H       2  LIG2        0.0293
     27    H      -68.3320  -90.5490  -10.6200 H       2  LIG2        0.0293
     28    H      -66.7000  -86.6800   -5.7880 H       2  LIG2        0.0235
     29    H      -68.3200  -86.0930   -5.4140 H       2  LIG2        0.0235
     30    H      -67.5540  -85.6590   -6.9330 H       2  LIG2        0.0235
     31    H      -67.4940  -89.1130   -5.3720 H       2  LIG2        0.0235
     32    H      -68.8390  -89.8000   -6.2430 H       2  LIG2        0.0235
     33    H      -69.1330  -88.5730   -5.0310 H       2  LIG2        0.0235
     34    H      -73.3160  -89.2090   -8.4570 H       2  LIG2        0.0268
     35    H      -73.7300  -87.5600   -8.9170 H       2  LIG2        0.0268
     36    H      -72.3260  -89.0270   -6.1040 H       2  LIG2        0.0233
     37    H      -73.1560  -87.4740   -6.0810 H       2  LIG2        0.0233
     38    H      -71.4470  -87.5630   -5.6720 H       2  LIG2        0.0233
     39    H      -70.3060  -90.3750  -12.1080 H       2  LIG2        0.0257
     40    H      -69.2410  -89.2110  -12.8850 H       2  LIG2        0.0257
     41    H      -70.9030  -88.7800  -12.5400 H       2  LIG2        0.0257
     42    H      -70.1510  -86.9970  -11.2720 H       2  LIG2        0.2102
@<TRIPOS>BOND
     1    40    16    1
     2    41    16    1
     3    16    39    1
     4    16     9    1
     5    42     1    1
     6    26    11    1
     7     1     9    1
     8    25    10    1
     9     9    11    1
    10     9     6    1
    11    24    10    1
    12    27    11    1
    13    11     7    1
    14    10     6    1
    15    10    14    1
    16     6    20    1
    17     6     5    1
    18    35    14    1
    19     7    21    1
    20     7    22    1
    21     7     4    1
    22    14    34    1
    23    14     8    1
    24    18     4    1
    25    17     2    1
    26     4     2    1
    27     4     3    1
    28     5     2    1
    29     5     8    1
    30     5    19    1
    31    23     8    1
    32     2     3    1
    33     8    15    1
    34    30    12    1
    35     3    12    1
    36     3    13    1
    37    15    36    1
    38    15    37    1
    39    15    38    1
    40    32    13    1
    41    12    28    1
    42    12    29    1
    43    13    31    1
    44    13    33    1
@<TRIPOS>MOLECULE
11996452_7_run_15.pdb
 42 44 0 0 0
SMALL
GASTEIGER

@<TRIPOS>ATOM
      1    O      -56.6710  -73.6590   -7.2350 O.3     2  LIG2       -0.3886
      2    C      -59.4530  -72.6950   -7.4910 C.3     2  LIG2       -0.0289
      3    C      -60.1890  -71.4160   -7.8690 C.3     2  LIG2       -0.0284
      4    C      -58.6960  -71.3700   -7.6480 C.3     2  LIG2       -0.0319
      5    C      -59.5400  -73.3470   -6.0780 C.3     2  LIG2       -0.0294
      6    C      -58.1980  -73.6970   -5.3440 C.3     2  LIG2       -0.0090
      7    C      -58.0080  -70.8060   -6.3930 C.3     2  LIG2       -0.0468
      8    C      -60.3860  -74.6450   -6.1010 C.3     2  LIG2       -0.0404
      9    C      -56.8380  -73.1580   -5.9180 C.3     2  LIG2        0.0664
     10    C      -58.2620  -75.2200   -5.1180 C.3     2  LIG2       -0.0471
     11    C      -56.7490  -71.5970   -5.9770 C.3     2  LIG2       -0.0237
     12    C      -60.6810  -71.3190   -9.3250 C.3     2  LIG2       -0.0593
     13    C      -61.1550  -70.7040   -6.8930 C.3     2  LIG2       -0.0593
     14    C      -59.7490  -75.5600   -5.0550 C.3     2  LIG2       -0.0498
     15    C      -61.8900  -74.4010   -5.8820 C.3     2  LIG2       -0.0621
     16    C      -55.6220  -73.6800   -5.1140 C.3     2  LIG2       -0.0358
     17    H      -59.2730  -73.4360   -8.2720 H       2  LIG2        0.0312
     18    H      -58.0800  -71.2260   -8.5360 H       2  LIG2        0.0309
     19    H      -60.0440  -72.6550   -5.4060 H       2  LIG2        0.0310
     20    H      -58.2690  -73.2590   -4.3450 H       2  LIG2        0.0331
     21    H      -57.7320  -69.7670   -6.5780 H       2  LIG2        0.0269
     22    H      -58.6860  -70.7730   -5.5430 H       2  LIG2        0.0269
     23    H      -60.2640  -75.1440   -7.0650 H       2  LIG2        0.0301
     24    H      -57.7890  -75.7570   -5.9420 H       2  LIG2        0.0269
     25    H      -57.7540  -75.5220   -4.2010 H       2  LIG2        0.0269
     26    H      -55.9170  -71.3020   -6.6200 H       2  LIG2        0.0293
     27    H      -56.4790  -71.2280   -4.9860 H       2  LIG2        0.0293
     28    H      -60.7710  -70.2800   -9.6410 H       2  LIG2        0.0235
     29    H      -61.6580  -71.7900   -9.4390 H       2  LIG2        0.0235
     30    H      -60.0020  -71.8120  -10.0220 H       2  LIG2        0.0235
     31    H      -61.2800  -69.6590   -7.1750 H       2  LIG2        0.0235
     32    H      -60.8320  -70.7060   -5.8560 H       2  LIG2        0.0235
     33    H      -62.1400  -71.1730   -6.9200 H       2  LIG2        0.0235
     34    H      -60.1460  -75.3530   -4.0590 H       2  LIG2        0.0268
     35    H      -59.9260  -76.6150   -5.2680 H       2  LIG2        0.0268
     36    H      -62.0840  -73.9210   -4.9210 H       2  LIG2        0.0233
     37    H      -62.4460  -75.3400   -5.9010 H       2  LIG2        0.0233
     38    H      -62.3010  -73.7600   -6.6620 H       2  LIG2        0.0233
     39    H      -55.6860  -73.3880   -4.0660 H       2  LIG2        0.0257
     40    H      -54.6810  -73.2890   -5.5050 H       2  LIG2        0.0257
     41    H      -55.5460  -74.7680   -5.1440 H       2  LIG2        0.0257
     42    H      -56.4330  -74.5860   -7.1790 H       2  LIG2        0.2102
@<TRIPOS>BOND
     1    30    12    1
     2    28    12    1
     3    29    12    1
     4    12     3    1
     5    18     4    1
     6    17     2    1
     7     3     4    1
     8     3     2    1
     9     3    13    1
    10     4     2    1
    11     4     7    1
    12     2     5    1
    13     1    42    1
    14     1     9    1
    15    31    13    1
    16    23     8    1
    17    33    13    1
    18    13    32    1
    19    38    15    1
    20    26    11    1
    21    21     7    1
    22     7    11    1
    23     7    22    1
    24     8     5    1
    25     8    15    1
    26     8    14    1
    27     5    19    1
    28     5     6    1
    29    11     9    1
    30    11    27    1
    31    24    10    1
    32     9     6    1
    33     9    16    1
    34    37    15    1
    35    15    36    1
    36    40    16    1
    37     6    10    1
    38     6    20    1
    39    35    14    1
    40    41    16    1
    41    10    14    1
    42    10    25    1
    43    16    39    1
    44    14    34    1
@<TRIPOS>MOLECULE
11996452_7_run_5.pdb
 42 44 0 0 0
SMALL
GASTEIGER

@<TRIPOS>ATOM
      1    O      -69.1690  -88.5590   -5.7170 O.3     2  LIG2       -0.3886
      2    C      -69.5850  -89.1840   -8.5750 C.3     2  LIG2       -0.0289
      3    C      -68.7560  -89.3320   -9.8450 C.3     2  LIG2       -0.0284
      4    C      -68.1140  -88.7530   -8.6080 C.3     2  LIG2       -0.0319
      5    C      -70.6830  -88.0940   -8.3920 C.3     2  LIG2       -0.0294
      6    C      -70.6220  -87.1940   -7.1080 C.3     2  LIG2       -0.0090
      7    C      -67.8180  -87.2590   -8.3860 C.3     2  LIG2       -0.0468
      8    C      -72.1060  -88.7060   -8.4390 C.3     2  LIG2       -0.0404
      9    C      -69.3430  -87.2340   -6.1950 C.3     2  LIG2        0.0664
     10    C      -71.9590  -87.4530   -6.3850 C.3     2  LIG2       -0.0471
     11    C      -68.0290  -86.8040   -6.9260 C.3     2  LIG2       -0.0237
     12    C      -68.3550  -90.7680  -10.2320 C.3     2  LIG2       -0.0593
     13    C      -69.0020  -88.4550  -11.0940 C.3     2  LIG2       -0.0593
     14    C      -72.9420  -87.8560   -7.4810 C.3     2  LIG2       -0.0498
     15    C      -72.6890  -88.7960   -9.8600 C.3     2  LIG2       -0.0621
     16    C      -69.5050  -86.3520   -4.9330 C.3     2  LIG2       -0.0358
     17    H      -69.8000  -90.0820   -7.9920 H       2  LIG2        0.0312
     18    H      -67.3770  -89.3810   -8.1070 H       2  LIG2        0.0309
     19    H      -70.6170  -87.3900   -9.2200 H       2  LIG2        0.0310
     20    H      -70.6820  -86.1590   -7.4530 H       2  LIG2        0.0331
     21    H      -66.7890  -87.0540   -8.6790 H       2  LIG2        0.0269
     22    H      -68.4290  -86.6290   -9.0300 H       2  LIG2        0.0269
     23    H      -72.0850  -89.7140   -8.0210 H       2  LIG2        0.0301
     24    H      -71.8580  -88.2590   -5.6560 H       2  LIG2        0.0269
     25    H      -72.3130  -86.5730   -5.8480 H       2  LIG2        0.0269
     26    H      -67.1650  -87.1080   -6.3320 H       2  LIG2        0.0293
     27    H      -67.9840  -85.7140   -6.9440 H       2  LIG2        0.0293
     28    H      -67.4430  -90.7730  -10.8290 H       2  LIG2        0.0235
     29    H      -69.1400  -91.2500  -10.8140 H       2  LIG2        0.0235
     30    H      -68.1710  -91.3930   -9.3560 H       2  LIG2        0.0235
     31    H      -68.1150  -88.4350  -11.7280 H       2  LIG2        0.0235
     32    H      -69.2480  -87.4180  -10.8780 H       2  LIG2        0.0235
     33    H      -69.8230  -88.8570  -11.6890 H       2  LIG2        0.0235
     34    H      -73.3370  -86.9720   -7.9840 H       2  LIG2        0.0268
     35    H      -73.7890  -88.4090   -7.0720 H       2  LIG2        0.0268
     36    H      -72.7580  -87.8130  -10.3300 H       2  LIG2        0.0233
     37    H      -73.6910  -89.2270   -9.8470 H       2  LIG2        0.0233
     38    H      -72.0700  -89.4260  -10.4990 H       2  LIG2        0.0233
     39    H      -69.6980  -85.3120   -5.2000 H       2  LIG2        0.0257
     40    H      -68.6080  -86.3680   -4.3110 H       2  LIG2        0.0257
     41    H      -70.3310  -86.6830   -4.3020 H       2  LIG2        0.0257
     42    H      -68.3760  -88.5850   -5.1780 H       2  LIG2        0.2102
@<TRIPOS>BOND
     1    31    13    1
     2    33    13    1
     3    13    32    1
     4    13     3    1
     5    28    12    1
     6    29    12    1
     7    38    15    1
     8    36    15    1
     9    12     3    1
    10    12    30    1
    11    15    37    1
    12    15     8    1
    13     3     4    1
    14     3     2    1
    15    19     5    1
    16    22     7    1
    17    21     7    1
    18     4     2    1
    19     4     7    1
    20     4    18    1
    21     2     5    1
    22     2    17    1
    23     8     5    1
    24     8    23    1
    25     8    14    1
    26     5     6    1
    27     7    11    1
    28    34    14    1
    29    14    35    1
    30    14    10    1
    31    20     6    1
    32     6    10    1
    33     6     9    1
    34    27    11    1
    35    11    26    1
    36    11     9    1
    37    10    25    1
    38    10    24    1
    39     9     1    1
    40     9    16    1
    41     1    42    1
    42    39    16    1
    43    16    40    1
    44    16    41    1
@<TRIPOS>MOLECULE
11996452_7_run_8.pdb
 42 44 0 0 0
SMALL
GASTEIGER

@<TRIPOS>ATOM
      1    O      -71.1800  -86.6590   -8.3160 O.3     2  LIG2       -0.3886
      2    C      -68.8780  -88.4020   -7.6850 C.3     2  LIG2       -0.0289
      3    C      -68.3200  -89.7550   -8.1070 C.3     2  LIG2       -0.0284
      4    C      -69.7060  -89.3570   -8.5530 C.3     2  LIG2       -0.0319
      5    C      -69.3650  -88.0910   -6.2370 C.3     2  LIG2       -0.0294
      6    C      -70.7960  -87.4720   -6.0570 C.3     2  LIG2       -0.0090
      7    C      -71.0140  -89.8950   -7.9490 C.3     2  LIG2       -0.0468
      8    C      -68.3790  -87.1560   -5.4940 C.3     2  LIG2       -0.0404
      9    C      -71.7790  -87.4260   -7.2830 C.3     2  LIG2        0.0664
     10    C      -70.5520  -86.1220   -5.3550 C.3     2  LIG2       -0.0471
     11    C      -72.1330  -88.8340   -7.8650 C.3     2  LIG2       -0.0237
     12    C      -67.2100  -89.7280   -9.1750 C.3     2  LIG2       -0.0593
     13    C      -68.1130  -90.9100   -7.1000 C.3     2  LIG2       -0.0593
     14    C      -69.2510  -86.2980   -4.5750 C.3     2  LIG2       -0.0498
     15    C      -67.2540  -87.9070   -4.7600 C.3     2  LIG2       -0.0621
     16    C      -73.1020  -86.7010   -6.9360 C.3     2  LIG2       -0.0358
     17    H      -68.5050  -87.5090   -8.1900 H       2  LIG2        0.0312
     18    H      -69.8250  -89.1250   -9.6120 H       2  LIG2        0.0309
     19    H      -69.4000  -89.0220   -5.6740 H       2  LIG2        0.0310
     20    H      -71.3080  -88.0890   -5.3150 H       2  LIG2        0.0331
     21    H      -71.3630  -90.7350   -8.5500 H       2  LIG2        0.0269
     22    H      -70.8580  -90.3040   -6.9520 H       2  LIG2        0.0269
     23    H      -67.9140  -86.4720   -6.2070 H       2  LIG2        0.0301
     24    H      -70.4470  -85.3170   -6.0830 H       2  LIG2        0.0269
     25    H      -71.3720  -85.8510   -4.6880 H       2  LIG2        0.0269
     26    H      -72.5850  -88.7180   -8.8520 H       2  LIG2        0.0293
     27    H      -72.9170  -89.2760   -7.2500 H       2  LIG2        0.0293
     28    H      -67.1840  -90.6620   -9.7370 H       2  LIG2        0.0235
     29    H      -66.2310  -89.5850   -8.7170 H       2  LIG2        0.0235
     30    H      -67.3510  -88.9210   -9.8950 H       2  LIG2        0.0235
     31    H      -68.0740  -91.8670   -7.6200 H       2  LIG2        0.0235
     32    H      -68.8930  -90.9990   -6.3490 H       2  LIG2        0.0235
     33    H      -67.1710  -90.7880   -6.5650 H       2  LIG2        0.0235
     34    H      -69.4390  -86.8060   -3.6270 H       2  LIG2        0.0268
     35    H      -68.7890  -85.3360   -4.3490 H       2  LIG2        0.0268
     36    H      -67.6520  -88.5960   -4.0120 H       2  LIG2        0.0233
     37    H      -66.5880  -87.2130   -4.2470 H       2  LIG2        0.0233
     38    H      -66.6500  -88.4880   -5.4570 H       2  LIG2        0.0233
     39    H      -73.6160  -87.1900   -6.1090 H       2  LIG2        0.0257
     40    H      -73.7890  -86.6870   -7.7840 H       2  LIG2        0.0257
     41    H      -72.9390  -85.6610   -6.6480 H       2  LIG2        0.0257
     42    H      -71.4060  -85.7370   -8.1790 H       2  LIG2        0.2102
@<TRIPOS>BOND
     1    30    12    1
     2    28    12    1
     3    18     4    1
     4    12    29    1
     5    12     3    1
     6    26    11    1
     7     4     3    1
     8     4     7    1
     9     4     2    1
    10    21     7    1
    11     1    42    1
    12     1     9    1
    13    17     2    1
    14     3     2    1
    15     3    13    1
    16     7    11    1
    17     7    22    1
    18    11     9    1
    19    11    27    1
    20    40    16    1
    21     2     5    1
    22    31    13    1
    23     9    16    1
    24     9     6    1
    25    13    33    1
    26    13    32    1
    27    16    41    1
    28    16    39    1
    29     5     6    1
    30     5    19    1
    31     5     8    1
    32    23     8    1
    33    24    10    1
    34     6    10    1
    35     6    20    1
    36     8    15    1
    37     8    14    1
    38    38    15    1
    39    10    25    1
    40    10    14    1
    41    15    37    1
    42    15    36    1
    43    14    35    1
    44    14    34    1
