@<TRIPOS>MOLECULE
5281519_run_11.pdb
 39 39 0 0 0
SMALL
GASTEIGER

@<TRIPOS>ATOM
      1    C      -61.0710  -80.6820  -13.9450 C.3     2  LIG2       -0.0275
      2    C      -62.4610  -81.1120  -13.4290 C.2     2  LIG2       -0.0668
      3    C      -61.0170  -79.4730  -14.9290 C.3     2  LIG2       -0.0283
      4    C      -62.7460  -80.7270  -11.9610 C.3     2  LIG2       -0.0130
      5    C      -61.2610  -78.1150  -14.2800 C.2     2  LIG2       -0.0762
      6    C      -63.2950  -76.8390  -12.0030 C.3     2  LIG2       -0.0286
      7    C      -62.9850  -76.3920  -13.4650 C.3     2  LIG2       -0.0308
      8    C      -63.6620  -78.3200  -11.8870 C.2     2  LIG2       -0.0759
      9    C      -63.3430  -81.7970  -14.2130 C.2     2  LIG2       -0.0762
     10    C      -62.6790  -79.2320  -11.7170 C.2     2  LIG2       -0.0810
     11    C      -62.4760  -77.5280  -14.3500 C.2     2  LIG2       -0.0847
     12    C      -60.0940  -77.5650  -13.4680 C.3     2  LIG2       -0.0438
     13    C      -65.1090  -78.6540  -12.2210 C.3     2  LIG2       -0.0438
     14    C      -63.0730  -82.1780  -15.6670 C.3     2  LIG2       -0.0438
     15    C      -64.7090  -82.3000  -13.7510 C.3     2  LIG2       -0.0438
     16    H      -60.4080  -80.5070  -13.0970 H       2  LIG2        0.0313
     17    H      -60.6220  -81.5450  -14.4370 H       2  LIG2        0.0313
     18    H      -60.0420  -79.4400  -15.4160 H       2  LIG2        0.0313
     19    H      -61.7340  -79.6230  -15.7370 H       2  LIG2        0.0313
     20    H      -63.7150  -81.0700  -11.6140 H       2  LIG2        0.0352
     21    H      -62.0270  -81.2280  -11.3130 H       2  LIG2        0.0352
     22    H      -62.4050  -76.6590  -11.3970 H       2  LIG2        0.0313
     23    H      -64.0720  -76.2170  -11.5570 H       2  LIG2        0.0313
     24    H      -63.8990  -76.0170  -13.9290 H       2  LIG2        0.0310
     25    H      -62.2890  -75.5530  -13.4760 H       2  LIG2        0.0310
     26    H      -61.6770  -78.8720  -11.5330 H       2  LIG2        0.0575
     27    H      -63.2470  -78.0170  -14.9280 H       2  LIG2        0.0572
     28    H      -59.7360  -78.2990  -12.7460 H       2  LIG2        0.0274
     29    H      -60.3530  -76.6630  -12.9160 H       2  LIG2        0.0274
     30    H      -59.2690  -77.3120  -14.1340 H       2  LIG2        0.0274
     31    H      -65.7620  -78.3190  -11.4140 H       2  LIG2        0.0274
     32    H      -65.2800  -79.7180  -12.3600 H       2  LIG2        0.0274
     33    H      -65.4150  -78.1520  -13.1390 H       2  LIG2        0.0274
     34    H      -63.1280  -83.2600  -15.7910 H       2  LIG2        0.0274
     35    H      -62.0990  -81.8710  -16.0410 H       2  LIG2        0.0274
     36    H      -63.8210  -81.7220  -16.3150 H       2  LIG2        0.0274
     37    H      -64.9450  -83.2590  -14.2150 H       2  LIG2        0.0274
     38    H      -65.4830  -81.5930  -14.0490 H       2  LIG2        0.0274
     39    H      -64.7890  -82.4630  -12.6790 H       2  LIG2        0.0274
@<TRIPOS>BOND
     1    36    14    1
     2    35    14    1
     3    34    14    1
     4    19     3    1
     5    14     9    1
     6    18     3    1
     7     3     5    1
     8     3     1    1
     9    27    11    1
    10    17     1    1
    11    11     5    2
    12    11     7    1
    13     5    12    1
    14    37    15    1
    15     9    15    1
    16     9     2    2
    17    30    12    1
    18    38    15    1
    19     1     2    1
    20     1    16    1
    21    24     7    1
    22    15    39    1
    23    25     7    1
    24    12    29    1
    25    12    28    1
    26     7     6    1
    27     2     4    1
    28    33    13    1
    29    32    13    1
    30    13     8    1
    31    13    31    1
    32     6     8    1
    33     6    23    1
    34     6    22    1
    35     4    10    1
    36     4    20    1
    37     4    21    1
    38     8    10    2
    39    10    26    1
@<TRIPOS>MOLECULE
5281519_run_18.pdb
 39 39 0 0 0
SMALL
GASTEIGER

@<TRIPOS>ATOM
      1    C      -61.3480  -78.6130  -14.7650 C.3     2  LIG2       -0.0275
      2    C      -61.2790  -79.9630  -14.0190 C.2     2  LIG2       -0.0668
      3    C      -62.7500  -77.9450  -14.9040 C.3     2  LIG2       -0.0283
      4    C      -60.6720  -79.8810  -12.6010 C.3     2  LIG2       -0.0130
      5    C      -63.2910  -77.3290  -13.6190 C.2     2  LIG2       -0.0762
      6    C      -63.4120  -78.1190  -10.4080 C.3     2  LIG2       -0.0286
      7    C      -64.5390  -77.7070  -11.4040 C.3     2  LIG2       -0.0308
      8    C      -62.5290  -79.2560  -10.9280 C.2     2  LIG2       -0.0759
      9    C      -61.7020  -81.1280  -14.5910 C.2     2  LIG2       -0.0762
     10    C      -61.4440  -78.9590  -11.6790 C.2     2  LIG2       -0.0810
     11    C      -64.1910  -77.9940  -12.8630 C.2     2  LIG2       -0.0847
     12    C      -62.6510  -76.0060  -13.2140 C.3     2  LIG2       -0.0438
     13    C      -63.1040  -80.6540  -10.7460 C.3     2  LIG2       -0.0438
     14    C      -62.3080  -81.2190  -15.9900 C.3     2  LIG2       -0.0438
     15    C      -61.6130  -82.5030  -13.9340 C.3     2  LIG2       -0.0438
     16    H      -60.6410  -77.9140  -14.3150 H       2  LIG2        0.0313
     17    H      -60.9410  -78.7690  -15.7640 H       2  LIG2        0.0313
     18    H      -62.7080  -77.1590  -15.6590 H       2  LIG2        0.0313
     19    H      -63.4680  -78.6710  -15.2880 H       2  LIG2        0.0313
     20    H      -60.6050  -80.8480  -12.1140 H       2  LIG2        0.0352
     21    H      -59.6400  -79.5340  -12.6730 H       2  LIG2        0.0352
     22    H      -62.7780  -77.2480  -10.2320 H       2  LIG2        0.0313
     23    H      -63.8230  -78.3730   -9.4300 H       2  LIG2        0.0313
     24    H      -65.4440  -78.2730  -11.1790 H       2  LIG2        0.0310
     25    H      -64.8110  -76.6590  -11.2720 H       2  LIG2        0.0310
     26    H      -61.1600  -77.9210  -11.7740 H       2  LIG2        0.0575
     27    H      -64.5620  -78.9430  -13.2270 H       2  LIG2        0.0572
     28    H      -61.5630  -76.0830  -13.1990 H       2  LIG2        0.0274
     29    H      -62.9680  -75.6680  -12.2290 H       2  LIG2        0.0274
     30    H      -62.9260  -75.2290  -13.9280 H       2  LIG2        0.0274
     31    H      -63.0440  -80.9440   -9.6970 H       2  LIG2        0.0274
     32    H      -62.5790  -81.4090  -11.3270 H       2  LIG2        0.0274
     33    H      -64.1510  -80.6790  -11.0500 H       2  LIG2        0.0274
     34    H      -61.7170  -81.8880  -16.6160 H       2  LIG2        0.0274
     35    H      -62.3680  -80.2700  -16.5180 H       2  LIG2        0.0274
     36    H      -63.3220  -81.6150  -15.9290 H       2  LIG2        0.0274
     37    H      -61.3950  -83.2730  -14.6750 H       2  LIG2        0.0274
     38    H      -62.5670  -82.7540  -13.4710 H       2  LIG2        0.0274
     39    H      -60.8340  -82.5910  -13.1800 H       2  LIG2        0.0274
@<TRIPOS>BOND
     1    34    14    1
     2    35    14    1
     3    14    36    1
     4    14     9    1
     5    17     1    1
     6    18     3    1
     7    19     3    1
     8     3     1    1
     9     3     5    1
    10     1    16    1
    11     1     2    1
    12    37    15    1
    13     9     2    2
    14     9    15    1
    15     2     4    1
    16    15    38    1
    17    15    39    1
    18    30    12    1
    19     5    12    1
    20     5    11    2
    21    27    11    1
    22    12    28    1
    23    12    29    1
    24    11     7    1
    25    21     4    1
    26     4    20    1
    27     4    10    1
    28    26    10    1
    29    10     8    2
    30     7    25    1
    31     7    24    1
    32     7     6    1
    33    32    13    1
    34    33    13    1
    35     8    13    1
    36     8     6    1
    37    13    31    1
    38     6    22    1
    39     6    23    1
@<TRIPOS>MOLECULE
5281519_run_7.pdb
 39 39 0 0 0
SMALL
GASTEIGER

@<TRIPOS>ATOM
      1    C      -62.3390  -78.1850  -11.7570 C.3     2  LIG2       -0.0275
      2    C      -61.3730  -78.2970  -12.9560 C.2     2  LIG2       -0.0668
      3    C      -63.8660  -78.2880  -12.0580 C.3     2  LIG2       -0.0283
      4    C      -60.6150  -79.6400  -13.0440 C.3     2  LIG2       -0.0130
      5    C      -64.3540  -79.6930  -12.3940 C.2     2  LIG2       -0.0762
      6    C      -63.3000  -82.2690  -14.1830 C.3     2  LIG2       -0.0286
      7    C      -64.6560  -81.4970  -14.1990 C.3     2  LIG2       -0.0308
      8    C      -62.0800  -81.3520  -14.2930 C.2     2  LIG2       -0.0759
      9    C      -61.2000  -77.2750  -13.8430 C.2     2  LIG2       -0.0762
     10    C      -61.5390  -80.8350  -13.1670 C.2     2  LIG2       -0.0810
     11    C      -64.5430  -80.0660  -13.6780 C.2     2  LIG2       -0.0847
     12    C      -64.4780  -80.6380  -11.2050 C.3     2  LIG2       -0.0438
     13    C      -61.7310  -80.9090  -15.7070 C.3     2  LIG2       -0.0438
     14    C      -61.9490  -75.9450  -13.7680 C.3     2  LIG2       -0.0438
     15    C      -60.2230  -77.2970  -15.0170 C.3     2  LIG2       -0.0438
     16    H      -62.0560  -78.9120  -10.9940 H       2  LIG2        0.0313
     17    H      -62.1490  -77.2280  -11.2710 H       2  LIG2        0.0313
     18    H      -64.4340  -77.9350  -11.1960 H       2  LIG2        0.0313
     19    H      -64.1290  -77.6090  -12.8690 H       2  LIG2        0.0313
     20    H      -59.9190  -79.6790  -13.8750 H       2  LIG2        0.0352
     21    H      -59.9920  -79.7580  -12.1560 H       2  LIG2        0.0352
     22    H      -63.2320  -82.8170  -13.2420 H       2  LIG2        0.0313
     23    H      -63.2730  -83.0340  -14.9600 H       2  LIG2        0.0313
     24    H      -65.0210  -81.4310  -15.2240 H       2  LIG2        0.0310
     25    H      -65.4230  -82.0470  -13.6510 H       2  LIG2        0.0310
     26    H      -61.9040  -81.1950  -12.2160 H       2  LIG2        0.0575
     27    H      -64.3990  -79.3250  -14.4520 H       2  LIG2        0.0572
     28    H      -63.5580  -80.6590  -10.6200 H       2  LIG2        0.0274
     29    H      -64.7000  -81.6620  -11.5010 H       2  LIG2        0.0274
     30    H      -65.2870  -80.3070  -10.5530 H       2  LIG2        0.0274
     31    H      -61.2890  -81.7410  -16.2560 H       2  LIG2        0.0274
     32    H      -61.0220  -80.0850  -15.7330 H       2  LIG2        0.0274
     33    H      -62.6260  -80.5850  -16.2380 H       2  LIG2        0.0274
     34    H      -61.2440  -75.1190  -13.6760 H       2  LIG2        0.0274
     35    H      -62.6370  -75.8620  -12.9300 H       2  LIG2        0.0274
     36    H      -62.5320  -75.7970  -14.6760 H       2  LIG2        0.0274
     37    H      -59.7890  -76.3090  -15.1770 H       2  LIG2        0.0274
     38    H      -60.7490  -77.5760  -15.9290 H       2  LIG2        0.0274
     39    H      -59.3800  -77.9720  -14.8870 H       2  LIG2        0.0274
@<TRIPOS>BOND
     1    31    13    1
     2    33    13    1
     3    38    15    1
     4    32    13    1
     5    13     8    1
     6    24     7    1
     7    37    15    1
     8    15    39    1
     9    15     9    1
    10    23     6    1
    11    36    14    1
    12    27    11    1
    13     8     6    1
    14     8    10    2
    15     7     6    1
    16     7    11    1
    17     7    25    1
    18     6    22    1
    19    20     4    1
    20     9    14    1
    21     9     2    2
    22    14    34    1
    23    14    35    1
    24    11     5    2
    25    10     4    1
    26    10    26    1
    27     4     2    1
    28     4    21    1
    29     2     1    1
    30    19     3    1
    31     5     3    1
    32     5    12    1
    33     3     1    1
    34     3    18    1
    35     1    17    1
    36     1    16    1
    37    29    12    1
    38    12    28    1
    39    12    30    1
@<TRIPOS>MOLECULE
5281519_run_10.pdb
 39 39 0 0 0
SMALL
GASTEIGER

@<TRIPOS>ATOM
      1    C      -64.5830  -81.3920  -13.5790 C.3     2  LIG2       -0.0275
      2    C      -63.6310  -81.5310  -14.7870 C.2     2  LIG2       -0.0668
      3    C      -63.9310  -81.2310  -12.1720 C.3     2  LIG2       -0.0283
      4    C      -63.5400  -80.2730  -15.6790 C.3     2  LIG2       -0.0130
      5    C      -63.3090  -79.8640  -11.9130 C.2     2  LIG2       -0.0762
      6    C      -61.4800  -77.6690  -13.5820 C.3     2  LIG2       -0.0286
      7    C      -61.2590  -78.3380  -12.1910 C.3     2  LIG2       -0.0308
      8    C      -61.7740  -78.6740  -14.6980 C.2     2  LIG2       -0.0759
      9    C      -62.9510  -82.6860  -15.0440 C.2     2  LIG2       -0.0762
     10    C      -63.0530  -79.0490  -14.9290 C.2     2  LIG2       -0.0810
     11    C      -61.9770  -79.6780  -12.0430 C.2     2  LIG2       -0.0847
     12    C      -64.3010  -78.7420  -11.6310 C.3     2  LIG2       -0.0438
     13    C      -60.5480  -79.3500  -15.2970 C.3     2  LIG2       -0.0438
     14    C      -63.0300  -83.9340  -14.1660 C.3     2  LIG2       -0.0438
     15    C      -62.0390  -82.9100  -16.2470 C.3     2  LIG2       -0.0438
     16    H      -65.2860  -80.5790  -13.7640 H       2  LIG2        0.0313
     17    H      -65.2220  -82.2750  -13.5620 H       2  LIG2        0.0313
     18    H      -64.6800  -81.4090  -11.3990 H       2  LIG2        0.0313
     19    H      -63.1790  -82.0060  -12.0230 H       2  LIG2        0.0313
     20    H      -62.8920  -80.4090  -16.5380 H       2  LIG2        0.0352
     21    H      -64.5230  -80.0640  -16.1040 H       2  LIG2        0.0352
     22    H      -62.3310  -76.9900  -13.5010 H       2  LIG2        0.0313
     23    H      -60.6350  -77.0340  -13.8530 H       2  LIG2        0.0313
     24    H      -60.1950  -78.5350  -12.0500 H       2  LIG2        0.0310
     25    H      -61.5390  -77.6600  -11.3840 H       2  LIG2        0.0310
     26    H      -63.8390  -78.5240  -14.4060 H       2  LIG2        0.0575
     27    H      -61.3620  -80.5370  -12.2740 H       2  LIG2        0.0572
     28    H      -65.0720  -78.6960  -12.4010 H       2  LIG2        0.0274
     29    H      -63.8290  -77.7620  -11.5840 H       2  LIG2        0.0274
     30    H      -64.7900  -78.9130  -10.6720 H       2  LIG2        0.0274
     31    H      -60.0090  -78.6440  -15.9290 H       2  LIG2        0.0274
     32    H      -60.7950  -80.2150  -15.9080 H       2  LIG2        0.0274
     33    H      -59.8750  -79.6890  -14.5090 H       2  LIG2        0.0274
     34    H      -63.3890  -84.7830  -14.7470 H       2  LIG2        0.0274
     35    H      -63.6920  -83.8400  -13.3080 H       2  LIG2        0.0274
     36    H      -62.0400  -84.1770  -13.7800 H       2  LIG2        0.0274
     37    H      -62.1140  -83.9390  -16.6040 H       2  LIG2        0.0274
     38    H      -61.0020  -82.7370  -15.9610 H       2  LIG2        0.0274
     39    H      -62.2660  -82.2830  -17.1060 H       2  LIG2        0.0274
@<TRIPOS>BOND
     1    39    15    1
     2    37    15    1
     3    20     4    1
     4    15    38    1
     5    15     9    1
     6    21     4    1
     7    31    13    1
     8    32    13    1
     9     4    10    1
    10     4     2    1
    11    13     8    1
    12    13    33    1
    13     9     2    2
    14     9    14    1
    15    10     8    2
    16    10    26    1
    17     2     1    1
    18    34    14    1
    19     8     6    1
    20    14    36    1
    21    14    35    1
    22    23     6    1
    23    16     1    1
    24     6    22    1
    25     6     7    1
    26     1    17    1
    27     1     3    1
    28    28    12    1
    29    27    11    1
    30     7    24    1
    31     7    11    1
    32     7    25    1
    33     3    19    1
    34     3     5    1
    35     3    18    1
    36    11     5    2
    37     5    12    1
    38    12    29    1
    39    12    30    1
@<TRIPOS>MOLECULE
5281519_run_3.pdb
 39 39 0 0 0
SMALL
GASTEIGER

@<TRIPOS>ATOM
      1    C      -71.3130  -87.5370   -9.4010 C.3     2  LIG2       -0.0275
      2    C      -70.4790  -88.6970   -9.9900 C.2     2  LIG2       -0.0668
      3    C      -71.7930  -87.6810   -7.9250 C.3     2  LIG2       -0.0283
      4    C      -68.9730  -88.3890  -10.1430 C.3     2  LIG2       -0.0130
      5    C      -70.6980  -87.5010   -6.8800 C.2     2  LIG2       -0.0762
      6    C      -67.5410  -88.4090   -6.4870 C.3     2  LIG2       -0.0286
      7    C      -68.7800  -88.5850   -5.5560 C.3     2  LIG2       -0.0308
      8    C      -67.7820  -88.8990   -7.9160 C.2     2  LIG2       -0.0759
      9    C      -71.0470  -89.8800  -10.3610 C.2     2  LIG2       -0.0762
     10    C      -68.3020  -88.0460   -8.8270 C.2     2  LIG2       -0.0810
     11    C      -70.1080  -88.5740   -6.3100 C.2     2  LIG2       -0.0847
     12    C      -70.2570  -86.0610   -6.6440 C.3     2  LIG2       -0.0438
     13    C      -67.6320  -90.4010   -8.1170 C.3     2  LIG2       -0.0438
     14    C      -72.5340  -90.1970  -10.2090 C.3     2  LIG2       -0.0438
     15    C      -70.2940  -91.0450  -10.9980 C.3     2  LIG2       -0.0438
     16    H      -70.7710  -86.5990   -9.5310 H       2  LIG2        0.0313
     17    H      -72.1890  -87.4090  -10.0360 H       2  LIG2        0.0313
     18    H      -72.5740  -86.9470   -7.7200 H       2  LIG2        0.0313
     19    H      -72.2710  -88.6510   -7.7850 H       2  LIG2        0.0313
     20    H      -68.4180  -89.2070  -10.5890 H       2  LIG2        0.0352
     21    H      -68.8470  -87.5570  -10.8370 H       2  LIG2        0.0352
     22    H      -67.2930  -87.3470   -6.5270 H       2  LIG2        0.0313
     23    H      -66.6580  -88.8900   -6.0630 H       2  LIG2        0.0313
     24    H      -68.7150  -89.5470   -5.0460 H       2  LIG2        0.0310
     25    H      -68.7810  -87.8350   -4.7630 H       2  LIG2        0.0310
     26    H      -68.4050  -87.0070   -8.5510 H       2  LIG2        0.0575
     27    H      -70.4770  -89.5570   -6.5680 H       2  LIG2        0.0572
     28    H      -70.0050  -85.5680   -7.5830 H       2  LIG2        0.0274
     29    H      -69.3870  -85.9870   -5.9930 H       2  LIG2        0.0274
     30    H      -71.0640  -85.5010   -6.1710 H       2  LIG2        0.0274
     31    H      -66.5770  -90.6740   -8.0880 H       2  LIG2        0.0274
     32    H      -68.0340  -90.7450   -9.0670 H       2  LIG2        0.0274
     33    H      -68.1500  -90.9460   -7.3280 H       2  LIG2        0.0274
     34    H      -72.9720  -90.4310  -11.1790 H       2  LIG2        0.0274
     35    H      -73.1260  -89.3880   -9.7870 H       2  LIG2        0.0274
     36    H      -72.6640  -91.0600   -9.5580 H       2  LIG2        0.0274
     37    H      -70.9180  -91.5530  -11.7360 H       2  LIG2        0.0274
     38    H      -70.0290  -91.7760  -10.2340 H       2  LIG2        0.0274
     39    H      -69.3870  -90.7590  -11.5260 H       2  LIG2        0.0274
@<TRIPOS>BOND
     1    37    15    1
     2    39    15    1
     3    34    14    1
     4    15     9    1
     5    15    38    1
     6    21     4    1
     7    20     4    1
     8     9    14    1
     9     9     2    2
    10    14    35    1
    11    14    36    1
    12     4     2    1
    13     4    10    1
    14    17     1    1
    15     2     1    1
    16    16     1    1
    17     1     3    1
    18    32    13    1
    19    10    26    1
    20    10     8    2
    21    13    31    1
    22    13     8    1
    23    13    33    1
    24     3    19    1
    25     3    18    1
    26     3     5    1
    27     8     6    1
    28    28    12    1
    29     5    12    1
    30     5    11    2
    31    12    30    1
    32    12    29    1
    33    27    11    1
    34    22     6    1
    35     6    23    1
    36     6     7    1
    37    11     7    1
    38     7    24    1
    39     7    25    1
@<TRIPOS>MOLECULE
5281519_run_3.pdb
 39 39 0 0 0
SMALL
GASTEIGER

@<TRIPOS>ATOM
      1    C      -70.3440  -86.6600   -8.6900 C.3     2  LIG2       -0.0275
      2    C      -69.1020  -87.5720   -8.7940 C.2     2  LIG2       -0.0668
      3    C      -71.5650  -87.2060   -7.8870 C.3     2  LIG2       -0.0283
      4    C      -67.9090  -87.1300   -7.9180 C.3     2  LIG2       -0.0130
      5    C      -71.3750  -87.2190   -6.3740 C.2     2  LIG2       -0.0762
      6    C      -68.9690  -87.9730   -4.2320 C.3     2  LIG2       -0.0286
      7    C      -70.4460  -88.4650   -4.3270 C.3     2  LIG2       -0.0308
      8    C      -68.2020  -88.1020   -5.5500 C.2     2  LIG2       -0.0759
      9    C      -69.0710  -88.6600   -9.6170 C.2     2  LIG2       -0.0762
     10    C      -68.2440  -87.0850   -6.4410 C.2     2  LIG2       -0.0810
     11    C      -71.0300  -88.3580   -5.7350 C.2     2  LIG2       -0.0847
     12    C      -71.4790  -85.8590   -5.6950 C.3     2  LIG2       -0.0438
     13    C      -67.6470  -89.4900   -5.8410 C.3     2  LIG2       -0.0438
     14    C      -70.2470  -89.1080  -10.4830 C.3     2  LIG2       -0.0438
     15    C      -67.8610  -89.5710   -9.8100 C.3     2  LIG2       -0.0438
     16    H      -70.0460  -85.6840   -8.3050 H       2  LIG2        0.0313
     17    H      -70.6740  -86.4370   -9.7050 H       2  LIG2        0.0313
     18    H      -72.4470  -86.6040   -8.1080 H       2  LIG2        0.0313
     19    H      -71.8130  -88.2110   -8.2300 H       2  LIG2        0.0313
     20    H      -67.0390  -87.7680   -8.0360 H       2  LIG2        0.0352
     21    H      -67.5750  -86.1430   -8.2400 H       2  LIG2        0.0352
     22    H      -68.9790  -86.9210   -3.9440 H       2  LIG2        0.0313
     23    H      -68.4340  -88.4830   -3.4290 H       2  LIG2        0.0313
     24    H      -70.4950  -89.5180   -4.0460 H       2  LIG2        0.0310
     25    H      -71.0770  -87.9420   -3.6080 H       2  LIG2        0.0310
     26    H      -68.7080  -86.1600   -6.1340 H       2  LIG2        0.0575
     27    H      -70.9540  -89.2660   -6.3150 H       2  LIG2        0.0572
     28    H      -70.8300  -85.1270   -6.1780 H       2  LIG2        0.0274
     29    H      -71.2080  -85.8910   -4.6410 H       2  LIG2        0.0274
     30    H      -72.5050  -85.4940   -5.7550 H       2  LIG2        0.0274
     31    H      -66.7890  -89.6870   -5.1990 H       2  LIG2        0.0274
     32    H      -67.3210  -89.6110   -6.8710 H       2  LIG2        0.0274
     33    H      -68.4030  -90.2520   -5.6480 H       2  LIG2        0.0274
     34    H      -69.9600  -89.1200  -11.5340 H       2  LIG2        0.0274
     35    H      -71.1290  -88.4750  -10.4080 H       2  LIG2        0.0274
     36    H      -70.5520  -90.1150  -10.2010 H       2  LIG2        0.0274
     37    H      -67.7980  -89.9180  -10.8420 H       2  LIG2        0.0274
     38    H      -67.9550  -90.4500   -9.1730 H       2  LIG2        0.0274
     39    H      -66.9040  -89.0970   -9.5990 H       2  LIG2        0.0274
@<TRIPOS>BOND
     1    34    14    1
     2    37    15    1
     3    14    35    1
     4    14    36    1
     5    14     9    1
     6    15     9    1
     7    15    39    1
     8    15    38    1
     9    17     1    1
    10     9     2    2
    11     2     1    1
    12     2     4    1
    13     1    16    1
    14     1     3    1
    15    21     4    1
    16    19     3    1
    17    18     3    1
    18    20     4    1
    19     4    10    1
    20     3     5    1
    21    32    13    1
    22    10    26    1
    23    10     8    2
    24     5    11    2
    25     5    12    1
    26    27    11    1
    27    28    12    1
    28    13    33    1
    29    13     8    1
    30    13    31    1
    31    30    12    1
    32    11     7    1
    33    12    29    1
    34     8     6    1
    35     7     6    1
    36     7    24    1
    37     7    25    1
    38     6    22    1
    39     6    23    1
@<TRIPOS>MOLECULE
5281519_run_3.pdb
 39 39 0 0 0
SMALL
GASTEIGER

@<TRIPOS>ATOM
      1    C      -67.9080  -88.1480   -8.9680 C.3     2  LIG2       -0.0275
      2    C      -68.7140  -87.6170   -7.7620 C.2     2  LIG2       -0.0668
      3    C      -68.2670  -89.5710   -9.4950 C.3     2  LIG2       -0.0283
      4    C      -69.7490  -86.5260   -8.1150 C.3     2  LIG2       -0.0130
      5    C      -69.5810  -89.6500  -10.2640 C.2     2  LIG2       -0.0762
      6    C      -72.6380  -88.4150   -9.9870 C.3     2  LIG2       -0.0286
      7    C      -72.1380  -89.8840  -10.1470 C.3     2  LIG2       -0.0308
      8    C      -71.9420  -87.6590   -8.8530 C.2     2  LIG2       -0.0759
      9    C      -68.4980  -88.0680   -6.4930 C.2     2  LIG2       -0.0762
     10    C      -70.7910  -86.9980   -9.1100 C.2     2  LIG2       -0.0810
     11    C      -70.7060  -90.0920   -9.6590 C.2     2  LIG2       -0.0847
     12    C      -69.5400  -89.0870  -11.6790 C.3     2  LIG2       -0.0438
     13    C      -72.4990  -87.9260   -7.4620 C.3     2  LIG2       -0.0438
     14    C      -67.4800  -89.1500   -6.1340 C.3     2  LIG2       -0.0438
     15    C      -69.2180  -87.5490   -5.2500 C.3     2  LIG2       -0.0438
     16    H      -67.9520  -87.4230   -9.7810 H       2  LIG2        0.0313
     17    H      -66.8550  -88.1430   -8.6860 H       2  LIG2        0.0313
     18    H      -67.4740  -89.9290  -10.1520 H       2  LIG2        0.0313
     19    H      -68.2900  -90.2780   -8.6640 H       2  LIG2        0.0313
     20    H      -70.2760  -86.1470   -7.2460 H       2  LIG2        0.0352
     21    H      -69.2300  -85.6590   -8.5240 H       2  LIG2        0.0352
     22    H      -72.4440  -87.8860  -10.9210 H       2  LIG2        0.0313
     23    H      -73.7210  -88.3790   -9.8600 H       2  LIG2        0.0313
     24    H      -72.7710  -90.5470   -9.5570 H       2  LIG2        0.0310
     25    H      -72.2470  -90.2210  -11.1790 H       2  LIG2        0.0310
     26    H      -70.4710  -86.9150  -10.1380 H       2  LIG2        0.0575
     27    H      -70.6330  -90.4440   -8.6400 H       2  LIG2        0.0572
     28    H      -69.1260  -88.0780  -11.6890 H       2  LIG2        0.0274
     29    H      -70.5230  -89.0410  -12.1440 H       2  LIG2        0.0274
     30    H      -68.9120  -89.7180  -12.3090 H       2  LIG2        0.0274
     31    H      -73.4620  -87.4280   -7.3470 H       2  LIG2        0.0274
     32    H      -71.8480  -87.5700   -6.6670 H       2  LIG2        0.0274
     33    H      -72.6460  -88.9960   -7.3080 H       2  LIG2        0.0274
     34    H      -66.7520  -88.7620   -5.4220 H       2  LIG2        0.0274
     35    H      -66.9150  -89.5350   -6.9800 H       2  LIG2        0.0274
     36    H      -67.9880  -89.9980   -5.6760 H       2  LIG2        0.0274
     37    H      -68.5450  -87.5340   -4.3910 H       2  LIG2        0.0274
     38    H      -70.0500  -88.2080   -5.0030 H       2  LIG2        0.0274
     39    H      -69.6000  -86.5350   -5.3430 H       2  LIG2        0.0274
@<TRIPOS>BOND
     1    30    12    1
     2    29    12    1
     3    28    12    1
     4    12     5    1
     5    25     7    1
     6    22     6    1
     7     5    11    2
     8     5     3    1
     9    18     3    1
    10     7     6    1
    11     7    11    1
    12     7    24    1
    13    26    10    1
    14     6    23    1
    15     6     8    1
    16    16     1    1
    17    11    27    1
    18     3     1    1
    19     3    19    1
    20    10     8    2
    21    10     4    1
    22     1    17    1
    23     1     2    1
    24     8    13    1
    25    21     4    1
    26     4     2    1
    27     4    20    1
    28     2     9    2
    29    13    31    1
    30    13    33    1
    31    13    32    1
    32    35    14    1
    33     9    14    1
    34     9    15    1
    35    14    36    1
    36    14    34    1
    37    39    15    1
    38    15    38    1
    39    15    37    1
@<TRIPOS>MOLECULE
5281519_run_11.pdb
 39 39 0 0 0
SMALL
GASTEIGER

@<TRIPOS>ATOM
      1    C      -61.5000  -79.0880  -14.8750 C.3     2  LIG2       -0.0275
      2    C      -62.3070  -77.8780  -14.3550 C.2     2  LIG2       -0.0668
      3    C      -60.5430  -79.7950  -13.8660 C.3     2  LIG2       -0.0283
      4    C      -63.8060  -78.1640  -14.1190 C.3     2  LIG2       -0.0130
      5    C      -61.2460  -80.6430  -12.8130 C.2     2  LIG2       -0.0762
      6    C      -63.9330  -80.4050  -10.8970 C.3     2  LIG2       -0.0286
      7    C      -62.4450  -80.7040  -10.5400 C.3     2  LIG2       -0.0308
      8    C      -64.1100  -79.1540  -11.7600 C.2     2  LIG2       -0.0759
      9    C      -61.7300  -76.6590  -14.1500 C.2     2  LIG2       -0.0762
     10    C      -64.0470  -79.2650  -13.1060 C.2     2  LIG2       -0.0810
     11    C      -61.4550  -80.1600  -11.5690 C.2     2  LIG2       -0.0847
     12    C      -61.7850  -81.9800  -13.3090 C.3     2  LIG2       -0.0438
     13    C      -64.1030  -77.8370  -10.9950 C.3     2  LIG2       -0.0438
     14    C      -60.2480  -76.3680  -14.3760 C.3     2  LIG2       -0.0438
     15    C      -62.4780  -75.4090  -13.6910 C.3     2  LIG2       -0.0438
     16    H      -62.1810  -79.8140  -15.3200 H       2  LIG2        0.0313
     17    H      -60.9090  -78.7470  -15.7260 H       2  LIG2        0.0313
     18    H      -59.8520  -80.4410  -14.4090 H       2  LIG2        0.0313
     19    H      -59.9130  -79.0540  -13.3740 H       2  LIG2        0.0313
     20    H      -64.3550  -77.2890  -13.7860 H       2  LIG2        0.0352
     21    H      -64.2720  -78.4400  -15.0650 H       2  LIG2        0.0352
     22    H      -64.3280  -81.2590  -11.4490 H       2  LIG2        0.0313
     23    H      -64.5490  -80.3390   -9.9980 H       2  LIG2        0.0313
     24    H      -62.2000  -80.2310   -9.5880 H       2  LIG2        0.0310
     25    H      -62.2890  -81.7720  -10.3820 H       2  LIG2        0.0310
     26    H      -64.0080  -80.2570  -13.5320 H       2  LIG2        0.0575
     27    H      -61.0570  -79.1850  -11.3260 H       2  LIG2        0.0572
     28    H      -62.4000  -81.8500  -14.2000 H       2  LIG2        0.0274
     29    H      -62.3920  -82.4930  -12.5650 H       2  LIG2        0.0274
     30    H      -60.9550  -82.6410  -13.5630 H       2  LIG2        0.0274
     31    H      -65.0390  -77.7220  -10.4480 H       2  LIG2        0.0274
     32    H      -63.9920  -76.9700  -11.6420 H       2  LIG2        0.0274
     33    H      -63.2820  -77.8150  -10.2790 H       2  LIG2        0.0274
     34    H      -60.1260  -75.5740  -15.1140 H       2  LIG2        0.0274
     35    H      -59.6710  -77.2180  -14.7340 H       2  LIG2        0.0274
     36    H      -59.7890  -76.0410  -13.4440 H       2  LIG2        0.0274
     37    H      -62.0670  -74.5160  -14.1650 H       2  LIG2        0.0274
     38    H      -62.3690  -75.2880  -12.6130 H       2  LIG2        0.0274
     39    H      -63.5390  -75.4080  -13.9290 H       2  LIG2        0.0274
@<TRIPOS>BOND
     1    17     1    1
     2    16     1    1
     3    34    14    1
     4    21     4    1
     5     1     2    1
     6     1     3    1
     7    35    14    1
     8    18     3    1
     9    14     9    1
    10    14    36    1
    11     2     9    2
    12     2     4    1
    13    28    12    1
    14    37    15    1
    15     9    15    1
    16     4    20    1
    17     4    10    1
    18    39    15    1
    19     3    19    1
    20     3     5    1
    21    15    38    1
    22    30    12    1
    23    26    10    1
    24    12     5    1
    25    12    29    1
    26    10     8    2
    27     5    11    2
    28     8    13    1
    29     8     6    1
    30    32    13    1
    31    11    27    1
    32    11     7    1
    33    22     6    1
    34    13    31    1
    35    13    33    1
    36     6     7    1
    37     6    23    1
    38     7    25    1
    39     7    24    1
@<TRIPOS>MOLECULE
5281519_run_6.pdb
 39 39 0 0 0
SMALL
GASTEIGER

@<TRIPOS>ATOM
      1    C      -71.2190  -88.0430   -7.4160 C.3     2  LIG2       -0.0275
      2    C      -69.9430  -88.5530   -6.7110 C.2     2  LIG2       -0.0668
      3    C      -71.0280  -87.1640   -8.6900 C.3     2  LIG2       -0.0283
      4    C      -69.6520  -90.0550   -6.9240 C.3     2  LIG2       -0.0130
      5    C      -70.5790  -87.9310   -9.9290 C.2     2  LIG2       -0.0762
      6    C      -68.4450  -90.3540  -10.6480 C.3     2  LIG2       -0.0286
      7    C      -68.6180  -88.9280  -11.2570 C.3     2  LIG2       -0.0308
      8    C      -68.3410  -90.3530   -9.1220 C.2     2  LIG2       -0.0759
      9    C      -69.1630  -87.7350   -5.9480 C.2     2  LIG2       -0.0762
     10    C      -69.4720  -90.4230   -8.3830 C.2     2  LIG2       -0.0810
     11    C      -69.2810  -87.9390  -10.3000 C.2     2  LIG2       -0.0847
     12    C      -71.6640  -88.7580  -10.6080 C.3     2  LIG2       -0.0438
     13    C      -66.9610  -90.0260   -8.5690 C.3     2  LIG2       -0.0438
     14    C      -69.4390  -86.2480   -5.7350 C.3     2  LIG2       -0.0438
     15    C      -67.9210  -88.1840   -5.1800 C.3     2  LIG2       -0.0438
     16    H      -71.8740  -88.8870   -7.6360 H       2  LIG2        0.0313
     17    H      -71.7900  -87.4690   -6.6860 H       2  LIG2        0.0313
     18    H      -71.9640  -86.6590   -8.9300 H       2  LIG2        0.0313
     19    H      -70.3170  -86.3630   -8.4820 H       2  LIG2        0.0313
     20    H      -68.7700  -90.3940   -6.3910 H       2  LIG2        0.0352
     21    H      -70.4710  -90.6410   -6.5050 H       2  LIG2        0.0352
     22    H      -69.3120  -90.9520  -10.9310 H       2  LIG2        0.0313
     23    H      -67.5890  -90.8690  -11.0880 H       2  LIG2        0.0313
     24    H      -67.6370  -88.5190  -11.5020 H       2  LIG2        0.0310
     25    H      -69.1590  -88.9720  -12.2020 H       2  LIG2        0.0310
     26    H      -70.4030  -90.6130   -8.8960 H       2  LIG2        0.0575
     27    H      -68.5830  -87.3390   -9.7320 H       2  LIG2        0.0572
     28    H      -72.1700  -89.4070   -9.8920 H       2  LIG2        0.0274
     29    H      -71.2770  -89.3910  -11.4040 H       2  LIG2        0.0274
     30    H      -72.4090  -88.0970  -11.0520 H       2  LIG2        0.0274
     31    H      -66.2920  -90.8740   -8.7200 H       2  LIG2        0.0274
     32    H      -66.9700  -89.8020   -7.5050 H       2  LIG2        0.0274
     33    H      -66.5390  -89.1610   -9.0800 H       2  LIG2        0.0274
     34    H      -69.5660  -86.0340   -4.6740 H       2  LIG2        0.0274
     35    H      -70.3320  -85.8790   -6.2360 H       2  LIG2        0.0274
     36    H      -68.6000  -85.6590   -6.1050 H       2  LIG2        0.0274
     37    H      -67.8360  -87.6470   -4.2340 H       2  LIG2        0.0274
     38    H      -67.0270  -87.9660   -5.7630 H       2  LIG2        0.0274
     39    H      -67.9110  -89.2410   -4.9210 H       2  LIG2        0.0274
@<TRIPOS>BOND
     1    25     7    1
     2    24     7    1
     3    29    12    1
     4     7     6    1
     5     7    11    1
     6    23     6    1
     7    30    12    1
     8    22     6    1
     9     6     8    1
    10    12     5    1
    11    12    28    1
    12    11     5    2
    13    11    27    1
    14     5     3    1
    15     8    13    1
    16     8    10    2
    17    33    13    1
    18    18     3    1
    19    26    10    1
    20    31    13    1
    21     3    19    1
    22     3     1    1
    23    13    32    1
    24    10     4    1
    25    16     1    1
    26     1     2    1
    27     1    17    1
    28     4     2    1
    29     4    21    1
    30     4    20    1
    31     2     9    2
    32    35    14    1
    33    36    14    1
    34     9    14    1
    35     9    15    1
    36    38    15    1
    37    14    34    1
    38    15    39    1
    39    15    37    1
@<TRIPOS>MOLECULE
5281519_run_21.pdb
 39 39 0 0 0
SMALL
GASTEIGER

@<TRIPOS>ATOM
      1    C      -67.7130  -88.6020   -5.9920 C.3     2  LIG2       -0.0275
      2    C      -68.6910  -87.4750   -6.3900 C.2     2  LIG2       -0.0668
      3    C      -68.2380  -90.0680   -6.0810 C.3     2  LIG2       -0.0283
      4    C      -68.3920  -86.8220   -7.7570 C.3     2  LIG2       -0.0130
      5    C      -68.3760  -90.6080   -7.4990 C.2     2  LIG2       -0.0762
      6    C      -69.4370  -89.5010  -10.4310 C.3     2  LIG2       -0.0286
      7    C      -69.8260  -90.7720   -9.6150 C.3     2  LIG2       -0.0308
      8    C      -69.5160  -88.2090   -9.6140 C.2     2  LIG2       -0.0759
      9    C      -69.7150  -87.0860   -5.5770 C.2     2  LIG2       -0.0762
     10    C      -68.4360  -87.8080   -8.9070 C.2     2  LIG2       -0.0810
     11    C      -69.5780  -90.6270   -8.1150 C.2     2  LIG2       -0.0847
     12    C      -67.0650  -90.9890   -8.1790 C.3     2  LIG2       -0.0438
     13    C      -70.9110  -87.6120   -9.4830 C.3     2  LIG2       -0.0438
     14    C      -70.0220  -87.7300   -4.2250 C.3     2  LIG2       -0.0438
     15    C      -70.6840  -85.9460   -5.8820 C.3     2  LIG2       -0.0438
     16    H      -66.7890  -88.4980   -6.5620 H       2  LIG2        0.0313
     17    H      -67.3950  -88.4130   -4.9670 H       2  LIG2        0.0313
     18    H      -67.5670  -90.7310   -5.5340 H       2  LIG2        0.0313
     19    H      -69.1970  -90.1480   -5.5680 H       2  LIG2        0.0313
     20    H      -69.0730  -86.0120   -7.9960 H       2  LIG2        0.0352
     21    H      -67.4070  -86.3540   -7.7230 H       2  LIG2        0.0352
     22    H      -68.4110  -89.6220  -10.7800 H       2  LIG2        0.0313
     23    H      -70.0380  -89.4150  -11.3380 H       2  LIG2        0.0313
     24    H      -70.8920  -90.9690   -9.7400 H       2  LIG2        0.0310
     25    H      -69.3190  -91.6550  -10.0060 H       2  LIG2        0.0310
     26    H      -67.5080  -88.3420   -9.0500 H       2  LIG2        0.0575
     27    H      -70.4440  -90.3070   -7.5530 H       2  LIG2        0.0572
     28    H      -66.3430  -90.1740   -8.1250 H       2  LIG2        0.0274
     29    H      -67.1930  -91.2430   -9.2300 H       2  LIG2        0.0274
     30    H      -66.6330  -91.8600   -7.6840 H       2  LIG2        0.0274
     31    H      -71.2090  -87.1590  -10.4290 H       2  LIG2        0.0274
     32    H      -70.9760  -86.8450   -8.7160 H       2  LIG2        0.0274
     33    H      -71.6360  -88.3870   -9.2310 H       2  LIG2        0.0274
     34    H      -69.9740  -86.9840   -3.4320 H       2  LIG2        0.0274
     35    H      -69.3420  -88.5300   -3.9420 H       2  LIG2        0.0274
     36    H      -71.0260  -88.1520   -4.2360 H       2  LIG2        0.0274
     37    H      -70.9560  -85.4150   -4.9680 H       2  LIG2        0.0274
     38    H      -71.6000  -86.3460   -6.3150 H       2  LIG2        0.0274
     39    H      -70.2890  -85.1890   -6.5560 H       2  LIG2        0.0274
@<TRIPOS>BOND
     1    23     6    1
     2    22     6    1
     3     6     7    1
     4     6     8    1
     5    31    13    1
     6    25     7    1
     7    24     7    1
     8     7    11    1
     9     8    13    1
    10     8    10    2
    11    13    33    1
    12    13    32    1
    13    29    12    1
    14    26    10    1
    15    10     4    1
    16    12    28    1
    17    12    30    1
    18    12     5    1
    19    11    27    1
    20    11     5    2
    21    20     4    1
    22     4    21    1
    23     4     2    1
    24     5     3    1
    25    16     1    1
    26    39    15    1
    27     2     1    1
    28     2     9    2
    29    38    15    1
    30     3     1    1
    31     3    19    1
    32     3    18    1
    33     1    17    1
    34    15     9    1
    35    15    37    1
    36     9    14    1
    37    36    14    1
    38    14    35    1
    39    14    34    1
