@<TRIPOS>MOLECULE
11996452_10_run_6.pdb
 42 44 0 0 0
SMALL
GASTEIGER

@<TRIPOS>ATOM
      1    O      -65.3320  -77.7180  -11.9540 O.3     2  LIG2       -0.3886
      2    C      -61.7070  -80.2660  -13.0980 C.3     2  LIG2       -0.0289
      3    C      -62.3360  -81.1360  -14.1750 C.3     2  LIG2       -0.0284
      4    C      -62.8660  -81.2280  -12.7540 C.3     2  LIG2       -0.0319
      5    C      -61.8010  -78.7140  -12.9120 C.3     2  LIG2       -0.0294
      6    C      -63.1720  -77.9870  -12.9040 C.3     2  LIG2       -0.0090
      7    C      -64.2540  -80.6970  -12.3260 C.3     2  LIG2       -0.0468
      8    C      -60.8380  -77.8560  -13.7890 C.3     2  LIG2       -0.0404
      9    C      -64.0330  -78.1710  -11.6070 C.3     2  LIG2        0.0664
     10    C      -62.8290  -76.5380  -13.2890 C.3     2  LIG2       -0.0471
     11    C      -64.1970  -79.6590  -11.1860 C.3     2  LIG2       -0.0237
     12    C      -63.2230  -80.6130  -15.3310 C.3     2  LIG2       -0.0593
     13    C      -61.4690  -82.3160  -14.6570 C.3     2  LIG2       -0.0593
     14    C      -61.6770  -76.6660  -14.2820 C.3     2  LIG2       -0.0498
     15    C      -60.1250  -78.5800  -14.9490 C.3     2  LIG2       -0.0621
     16    C      -63.5750  -77.3390  -10.3850 C.3     2  LIG2       -0.0358
     17    H      -60.7190  -80.5890  -12.7660 H       2  LIG2        0.0312
     18    H      -62.6250  -82.1490  -12.2190 H       2  LIG2        0.0309
     19    H      -61.4240  -78.5760  -11.8970 H       2  LIG2        0.0310
     20    H      -63.7580  -78.3490  -13.7400 H       2  LIG2        0.0331
     21    H      -64.8510  -80.3260  -13.1570 H       2  LIG2        0.0269
     22    H      -64.8180  -81.5530  -11.9520 H       2  LIG2        0.0269
     23    H      -60.0510  -77.4570  -13.1440 H       2  LIG2        0.0301
     24    H      -63.6800  -76.0160  -13.7290 H       2  LIG2        0.0269
     25    H      -62.4970  -75.9560  -12.4300 H       2  LIG2        0.0269
     26    H      -65.0850  -79.7680  -10.5600 H       2  LIG2        0.0293
     27    H      -63.3710  -79.9400  -10.5310 H       2  LIG2        0.0293
     28    H      -63.8240  -81.4270  -15.7360 H       2  LIG2        0.0235
     29    H      -62.6160  -80.2320  -16.1510 H       2  LIG2        0.0235
     30    H      -63.9290  -79.8360  -15.0750 H       2  LIG2        0.0235
     31    H      -62.0870  -83.1270  -15.0470 H       2  LIG2        0.0235
     32    H      -60.8590  -82.7370  -13.8560 H       2  LIG2        0.0235
     33    H      -60.7890  -82.0030  -15.4490 H       2  LIG2        0.0235
     34    H      -61.0920  -75.7470  -14.3300 H       2  LIG2        0.0268
     35    H      -62.0690  -76.8520  -15.2830 H       2  LIG2        0.0268
     36    H      -60.8290  -78.9730  -15.6790 H       2  LIG2        0.0233
     37    H      -59.5150  -79.4090  -14.5890 H       2  LIG2        0.0233
     38    H      -59.4580  -77.8990  -15.4780 H       2  LIG2        0.0233
     39    H      -62.5390  -77.5530  -10.1190 H       2  LIG2        0.0257
     40    H      -64.1860  -77.5520   -9.5070 H       2  LIG2        0.0257
     41    H      -63.6540  -76.2660  -10.5610 H       2  LIG2        0.0257
     42    H      -65.2880  -76.7750  -12.1290 H       2  LIG2        0.2102
@<TRIPOS>BOND
     1    29    12    1
     2    28    12    1
     3    36    15    1
     4    38    15    1
     5    33    13    1
     6    12    30    1
     7    12     3    1
     8    35    14    1
     9    31    13    1
    10    15    37    1
    11    15     8    1
    12    13     3    1
    13    13    32    1
    14    34    14    1
    15    14     8    1
    16    14    10    1
    17     3     2    1
    18     3     4    1
    19     8    23    1
    20     8     5    1
    21    20     6    1
    22    24    10    1
    23    10     6    1
    24    10    25    1
    25    21     7    1
    26     2     5    1
    27     2    17    1
    28     2     4    1
    29     5     6    1
    30     5    19    1
    31     6     9    1
    32     4     7    1
    33     4    18    1
    34     7    22    1
    35     7    11    1
    36    42     1    1
    37     1     9    1
    38     9    11    1
    39     9    16    1
    40    11    26    1
    41    11    27    1
    42    41    16    1
    43    16    39    1
    44    16    40    1
@<TRIPOS>MOLECULE
11996452_10_run_14.pdb
 42 44 0 0 0
SMALL
GASTEIGER

@<TRIPOS>ATOM
      1    O      -71.5230  -89.1590  -12.0690 O.3     2  LIG2       -0.3886
      2    C      -69.2640  -88.9520   -8.0940 C.3     2  LIG2       -0.0289
      3    C      -68.9900  -87.4580   -8.0340 C.3     2  LIG2       -0.0284
      4    C      -68.3870  -88.2700   -9.1680 C.3     2  LIG2       -0.0319
      5    C      -70.6040  -89.6910   -8.4290 C.3     2  LIG2       -0.0294
      6    C      -71.4170  -89.3420   -9.7040 C.3     2  LIG2       -0.0090
      7    C      -68.8540  -88.1590  -10.6380 C.3     2  LIG2       -0.0468
      8    C      -71.6280  -89.8240   -7.2600 C.3     2  LIG2       -0.0404
      9    C      -70.8200  -89.8630  -11.0560 C.3     2  LIG2        0.0664
     10    C      -72.8470  -89.8050   -9.3720 C.3     2  LIG2       -0.0471
     11    C      -69.3200  -89.4970  -11.2440 C.3     2  LIG2       -0.0237
     12    C      -70.0390  -86.3530   -8.3060 C.3     2  LIG2       -0.0593
     13    C      -68.0190  -87.0120   -6.9230 C.3     2  LIG2       -0.0593
     14    C      -73.0040  -89.5310   -7.8790 C.3     2  LIG2       -0.0498
     15    C      -71.3640  -88.9660   -6.0060 C.3     2  LIG2       -0.0621
     16    C      -71.0210  -91.3720  -11.3320 C.3     2  LIG2       -0.0358
     17    H      -68.7220  -89.5490   -7.3590 H       2  LIG2        0.0312
     18    H      -67.3070  -88.4210   -9.1170 H       2  LIG2        0.0309
     19    H      -70.2700  -90.7160   -8.6020 H       2  LIG2        0.0310
     20    H      -71.4990  -88.2650   -9.7750 H       2  LIG2        0.0331
     21    H      -69.5980  -87.3810  -10.7980 H       2  LIG2        0.0269
     22    H      -67.9910  -87.8260  -11.2180 H       2  LIG2        0.0269
     23    H      -71.6330  -90.8640   -6.9260 H       2  LIG2        0.0301
     24    H      -73.5980  -89.2710   -9.9570 H       2  LIG2        0.0269
     25    H      -72.9840  -90.8690   -9.5570 H       2  LIG2        0.0269
     26    H      -69.0680  -89.5150  -12.3070 H       2  LIG2        0.0293
     27    H      -68.7020  -90.2850  -10.8100 H       2  LIG2        0.0293
     28    H      -69.5370  -85.4160   -8.5500 H       2  LIG2        0.0235
     29    H      -70.6490  -86.1630   -7.4240 H       2  LIG2        0.0235
     30    H      -70.7200  -86.5340   -9.1250 H       2  LIG2        0.0235
     31    H      -67.5160  -86.0810   -7.1880 H       2  LIG2        0.0235
     32    H      -67.2400  -87.7520   -6.7310 H       2  LIG2        0.0235
     33    H      -68.5470  -86.8510   -5.9830 H       2  LIG2        0.0235
     34    H      -73.7870  -90.1520   -7.4440 H       2  LIG2        0.0268
     35    H      -73.2910  -88.4900   -7.7210 H       2  LIG2        0.0268
     36    H      -71.3890  -87.9010   -6.2270 H       2  LIG2        0.0233
     37    H      -70.3960  -89.1950   -5.5600 H       2  LIG2        0.0233
     38    H      -72.1190  -89.1540   -5.2430 H       2  LIG2        0.0233
     39    H      -70.5980  -91.9850  -10.5350 H       2  LIG2        0.0257
     40    H      -70.5390  -91.6740  -12.2630 H       2  LIG2        0.0257
     41    H      -72.0730  -91.6400  -11.4290 H       2  LIG2        0.0257
     42    H      -71.3850  -88.2180  -11.9360 H       2  LIG2        0.2102
@<TRIPOS>BOND
     1    26    11    1
     2    40    16    1
     3     1    42    1
     4     1     9    1
     5    41    16    1
     6    16     9    1
     7    16    39    1
     8    11     9    1
     9    11    27    1
    10    11     7    1
    11    22     7    1
    12     9     6    1
    13    21     7    1
    14     7     4    1
    15    24    10    1
    16    20     6    1
    17     6    10    1
    18     6     5    1
    19    25    10    1
    20    10    14    1
    21     4    18    1
    22     4     2    1
    23     4     3    1
    24    30    12    1
    25    19     5    1
    26    28    12    1
    27     5     2    1
    28     5     8    1
    29    12     3    1
    30    12    29    1
    31     2     3    1
    32     2    17    1
    33     3    13    1
    34    14    35    1
    35    14    34    1
    36    14     8    1
    37     8    23    1
    38     8    15    1
    39    31    13    1
    40    13    32    1
    41    13    33    1
    42    36    15    1
    43    15    37    1
    44    15    38    1
@<TRIPOS>MOLECULE
11996452_10_run_20.pdb
 42 44 0 0 0
SMALL
GASTEIGER

@<TRIPOS>ATOM
      1    O      -61.8330  -82.2060  -14.3610 O.3     2  LIG2       -0.3886
      2    C      -63.7170  -78.1950  -13.2220 C.3     2  LIG2       -0.0289
      3    C      -63.5490  -78.2530  -11.7120 C.3     2  LIG2       -0.0284
      4    C      -64.4200  -79.2940  -12.3940 C.3     2  LIG2       -0.0319
      5    C      -62.6670  -78.5070  -14.3400 C.3     2  LIG2       -0.0294
      6    C      -61.8580  -79.8320  -14.3340 C.3     2  LIG2       -0.0090
      7    C      -64.0210  -80.7830  -12.5290 C.3     2  LIG2       -0.0468
      8    C      -61.6610  -77.3640  -14.6790 C.3     2  LIG2       -0.0404
      9    C      -62.6520  -81.1160  -14.7550 C.3     2  LIG2        0.0664
     10    C      -60.6050  -79.5080  -15.1660 C.3     2  LIG2       -0.0471
     11    C      -63.9920  -81.2880  -13.9860 C.3     2  LIG2       -0.0237
     12    C      -62.2430  -78.6510  -10.9810 C.3     2  LIG2       -0.0593
     13    C      -64.2890  -77.1540  -10.9240 C.3     2  LIG2       -0.0593
     14    C      -60.2950  -78.0490  -14.8430 C.3     2  LIG2       -0.0498
     15    C      -61.5990  -76.1800  -13.6930 C.3     2  LIG2       -0.0621
     16    C      -62.9070  -81.2690  -16.2740 C.3     2  LIG2       -0.0358
     17    H      -64.3680  -77.3960  -13.5810 H       2  LIG2        0.0312
     18    H      -65.4930  -79.1980  -12.2210 H       2  LIG2        0.0309
     19    H      -63.2880  -78.5830  -15.2330 H       2  LIG2        0.0310
     20    H      -61.4740  -79.9970  -13.3350 H       2  LIG2        0.0331
     21    H      -63.0960  -81.0310  -12.0150 H       2  LIG2        0.0269
     22    H      -64.7830  -81.3620  -12.0040 H       2  LIG2        0.0269
     23    H      -61.9360  -76.9430  -15.6490 H       2  LIG2        0.0301
     24    H      -59.7650  -80.1590  -14.9170 H       2  LIG2        0.0269
     25    H      -60.7890  -79.6060  -16.2350 H       2  LIG2        0.0269
     26    H      -64.2960  -82.3360  -14.0060 H       2  LIG2        0.0293
     27    H      -64.7850  -80.7690  -14.5270 H       2  LIG2        0.0293
     28    H      -62.4680  -78.9580   -9.9590 H       2  LIG2        0.0235
     29    H      -61.5570  -77.8080  -10.9130 H       2  LIG2        0.0235
     30    H      -61.6890  -79.4730  -11.4110 H       2  LIG2        0.0235
     31    H      -64.5180  -77.4820   -9.9090 H       2  LIG2        0.0235
     32    H      -65.2360  -76.8760  -11.3900 H       2  LIG2        0.0235
     33    H      -63.6870  -76.2490  -10.8560 H       2  LIG2        0.0235
     34    H      -59.6990  -77.5870  -15.6310 H       2  LIG2        0.0268
     35    H      -59.7140  -77.9880  -13.9210 H       2  LIG2        0.0268
     36    H      -61.2830  -76.4910  -12.7000 H       2  LIG2        0.0233
     37    H      -62.5670  -75.6860  -13.5990 H       2  LIG2        0.0233
     38    H      -60.8890  -75.4270  -14.0360 H       2  LIG2        0.0233
     39    H      -63.4440  -80.4090  -16.6790 H       2  LIG2        0.0257
     40    H      -63.5060  -82.1550  -16.4900 H       2  LIG2        0.0257
     41    H      -61.9830  -81.3760  -16.8420 H       2  LIG2        0.0257
     42    H      -61.0450  -82.2080  -14.9100 H       2  LIG2        0.2102
@<TRIPOS>BOND
     1    41    16    1
     2    39    16    1
     3    40    16    1
     4    16     9    1
     5    25    10    1
     6    23     8    1
     7    34    14    1
     8    19     5    1
     9    10    24    1
    10    10    14    1
    11    10     6    1
    12    42     1    1
    13    14     8    1
    14    14    35    1
    15     9     1    1
    16     9     6    1
    17     9    11    1
    18     8     5    1
    19     8    15    1
    20    27    11    1
    21     5     6    1
    22     5     2    1
    23     6    20    1
    24    38    15    1
    25    26    11    1
    26    11     7    1
    27    15    37    1
    28    15    36    1
    29    17     2    1
    30     2     4    1
    31     2     3    1
    32     7     4    1
    33     7    21    1
    34     7    22    1
    35     4    18    1
    36     4     3    1
    37     3    12    1
    38     3    13    1
    39    30    12    1
    40    32    13    1
    41    12    29    1
    42    12    28    1
    43    13    33    1
    44    13    31    1
@<TRIPOS>MOLECULE
11996452_10_run_23.pdb
 42 44 0 0 0
SMALL
GASTEIGER

@<TRIPOS>ATOM
      1    O      -67.4370  -87.4090   -9.8140 O.3     2  LIG2       -0.3886
      2    C      -69.3540  -90.0390   -6.5970 C.3     2  LIG2       -0.0289
      3    C      -68.1730  -90.1850   -5.6500 C.3     2  LIG2       -0.0284
      4    C      -68.0560  -90.7370   -7.0610 C.3     2  LIG2       -0.0319
      5    C      -69.9150  -88.7420   -7.2720 C.3     2  LIG2       -0.0294
      6    C      -68.9840  -87.7740   -8.0490 C.3     2  LIG2       -0.0090
      7    C      -67.1500  -90.1130   -8.1480 C.3     2  LIG2       -0.0468
      8    C      -70.8560  -87.8600   -6.3940 C.3     2  LIG2       -0.0404
      9    C      -68.5060  -88.2720   -9.4570 C.3     2  LIG2        0.0664
     10    C      -69.7370  -86.4320   -8.0250 C.3     2  LIG2       -0.0471
     11    C      -67.9060  -89.7060   -9.4280 C.3     2  LIG2       -0.0237
     12    C      -67.2770  -89.0210   -5.1650 C.3     2  LIG2       -0.0593
     13    C      -68.3580  -91.2230   -4.5240 C.3     2  LIG2       -0.0593
     14    C      -70.4360  -86.4070   -6.6690 C.3     2  LIG2       -0.0498
     15    C      -70.8940  -88.1750   -4.8850 C.3     2  LIG2       -0.0621
     16    C      -69.5600  -88.1770  -10.5860 C.3     2  LIG2       -0.0358
     17    H      -70.1940  -90.7050   -6.3910 H       2  LIG2        0.0312
     18    H      -68.0630  -91.8260   -7.1430 H       2  LIG2        0.0309
     19    H      -70.5770  -89.1450   -8.0410 H       2  LIG2        0.0310
     20    H      -68.1010  -87.5900   -7.4500 H       2  LIG2        0.0331
     21    H      -66.5390  -89.2910   -7.7810 H       2  LIG2        0.0269
     22    H      -66.4260  -90.8780   -8.4320 H       2  LIG2        0.0269
     23    H      -71.8780  -87.9800   -6.7600 H       2  LIG2        0.0301
     24    H      -69.0650  -85.5810   -8.1440 H       2  LIG2        0.0269
     25    H      -70.4860  -86.3710   -8.8140 H       2  LIG2        0.0269
     26    H      -67.2510  -89.8470  -10.2900 H       2  LIG2        0.0293
     27    H      -68.7070  -90.4320   -9.5780 H       2  LIG2        0.0293
     28    H      -66.3240  -89.4100   -4.8050 H       2  LIG2        0.0235
     29    H      -67.7350  -88.4910   -4.3320 H       2  LIG2        0.0235
     30    H      -67.0200  -88.2780   -5.9060 H       2  LIG2        0.0235
     31    H      -67.3960  -91.6120   -4.1850 H       2  LIG2        0.0235
     32    H      -68.9530  -92.0800   -4.8440 H       2  LIG2        0.0235
     33    H      -68.8630  -90.7830   -3.6660 H       2  LIG2        0.0235
     34    H      -71.2910  -85.7300   -6.6770 H       2  LIG2        0.0268
     35    H      -69.7460  -86.0480   -5.9030 H       2  LIG2        0.0268
     36    H      -69.9230  -88.0350   -4.4140 H       2  LIG2        0.0233
     37    H      -71.2130  -89.2010   -4.6980 H       2  LIG2        0.0233
     38    H      -71.5990  -87.5220   -4.3710 H       2  LIG2        0.0233
     39    H      -70.4660  -88.7320  -10.3370 H       2  LIG2        0.0257
     40    H      -69.1780  -88.5850  -11.5220 H       2  LIG2        0.0257
     41    H      -69.8530  -87.1480  -10.7950 H       2  LIG2        0.0257
     42    H      -67.7890  -86.5220   -9.9290 H       2  LIG2        0.2102
@<TRIPOS>BOND
     1    40    16    1
     2    41    16    1
     3    16    39    1
     4    16     9    1
     5    26    11    1
     6    42     1    1
     7     1     9    1
     8    27    11    1
     9     9    11    1
    10     9     6    1
    11    11     7    1
    12    25    10    1
    13    22     7    1
    14     7    21    1
    15     7     4    1
    16    24    10    1
    17     6    10    1
    18     6    20    1
    19     6     5    1
    20    19     5    1
    21    10    14    1
    22     5     2    1
    23     5     8    1
    24    18     4    1
    25     4     2    1
    26     4     3    1
    27    23     8    1
    28    34    14    1
    29    14     8    1
    30    14    35    1
    31     2    17    1
    32     2     3    1
    33     8    15    1
    34    30    12    1
    35     3    12    1
    36     3    13    1
    37    12    28    1
    38    12    29    1
    39    15    37    1
    40    15    36    1
    41    15    38    1
    42    32    13    1
    43    13    31    1
    44    13    33    1
@<TRIPOS>MOLECULE
11996452_10_run_1.pdb
 42 44 0 0 0
SMALL
GASTEIGER

@<TRIPOS>ATOM
      1    O      -67.0390  -88.8260   -6.8170 O.3     2  LIG2       -0.3886
      2    C      -71.2120  -87.7510   -8.3550 C.3     2  LIG2       -0.0289
      3    C      -71.4020  -88.8610   -9.3770 C.3     2  LIG2       -0.0284
      4    C      -70.2760  -87.8610   -9.5790 C.3     2  LIG2       -0.0319
      5    C      -70.7030  -87.8530   -6.8780 C.3     2  LIG2       -0.0294
      6    C      -69.3850  -88.5960   -6.5320 C.3     2  LIG2       -0.0090
      7    C      -68.7790  -88.2180   -9.4190 C.3     2  LIG2       -0.0468
      8    C      -71.7590  -88.2840   -5.8140 C.3     2  LIG2       -0.0404
      9    C      -68.0610  -87.8460   -6.9110 C.3     2  LIG2        0.0664
     10    C      -69.5480  -88.9750   -5.0500 C.3     2  LIG2       -0.0471
     11    C      -68.0400  -87.3470   -8.3830 C.3     2  LIG2       -0.0237
     12    C      -71.1090  -90.3590   -9.1220 C.3     2  LIG2       -0.0593
     13    C      -72.6270  -88.7040  -10.2990 C.3     2  LIG2       -0.0593
     14    C      -71.0350  -89.2780   -4.8910 C.3     2  LIG2       -0.0498
     15    C      -73.0890  -88.8540   -6.3480 C.3     2  LIG2       -0.0621
     16    C      -67.6640  -86.6860   -5.9680 C.3     2  LIG2       -0.0358
     17    H      -71.9510  -86.9490   -8.4050 H       2  LIG2        0.0312
     18    H      -70.4160  -87.1510  -10.3970 H       2  LIG2        0.0309
     19    H      -70.4910  -86.8120   -6.6290 H       2  LIG2        0.0310
     20    H      -69.3810  -89.5480   -7.0480 H       2  LIG2        0.0331
     21    H      -68.6050  -89.2750   -9.2310 H       2  LIG2        0.0269
     22    H      -68.3070  -88.0370  -10.3860 H       2  LIG2        0.0269
     23    H      -72.0180  -87.4090   -5.2140 H       2  LIG2        0.0301
     24    H      -68.9340  -89.8340   -4.7750 H       2  LIG2        0.0269
     25    H      -69.2780  -88.1540   -4.3870 H       2  LIG2        0.0269
     26    H      -67.0080  -87.2050   -8.7090 H       2  LIG2        0.0293
     27    H      -68.4750  -86.3470   -8.4290 H       2  LIG2        0.0293
     28    H      -70.9790  -90.8790  -10.0710 H       2  LIG2        0.0235
     29    H      -71.9410  -90.8410   -8.6110 H       2  LIG2        0.0235
     30    H      -70.2190  -90.5800   -8.5510 H       2  LIG2        0.0235
     31    H      -72.4750  -89.2190  -11.2490 H       2  LIG2        0.0235
     32    H      -72.8390  -87.6590  -10.5330 H       2  LIG2        0.0235
     33    H      -73.5220  -89.1160   -9.8340 H       2  LIG2        0.0235
     34    H      -71.3510  -89.1740   -3.8530 H       2  LIG2        0.0268
     35    H      -71.2380  -90.3080   -5.1900 H       2  LIG2        0.0268
     36    H      -72.9410  -89.7660   -6.9220 H       2  LIG2        0.0233
     37    H      -73.6060  -88.1360   -6.9840 H       2  LIG2        0.0233
     38    H      -73.7630  -89.0970   -5.5260 H       2  LIG2        0.0233
     39    H      -68.4530  -85.9350   -5.9010 H       2  LIG2        0.0257
     40    H      -66.7640  -86.1790   -6.3180 H       2  LIG2        0.0257
     41    H      -67.4510  -87.0290   -4.9560 H       2  LIG2        0.0257
     42    H      -66.1960  -88.4040   -6.9990 H       2  LIG2        0.2102
@<TRIPOS>BOND
     1    31    13    1
     2    32    13    1
     3    18     4    1
     4    22     7    1
     5    13    33    1
     6    13     3    1
     7    28    12    1
     8     4     7    1
     9     4     3    1
    10     4     2    1
    11     7    21    1
    12     7    11    1
    13     3    12    1
    14     3     2    1
    15    12    29    1
    16    12    30    1
    17    26    11    1
    18    27    11    1
    19    17     2    1
    20    11     9    1
    21     2     5    1
    22    20     6    1
    23    42     1    1
    24    37    15    1
    25    36    15    1
    26     9     1    1
    27     9     6    1
    28     9    16    1
    29     5    19    1
    30     5     6    1
    31     5     8    1
    32     6    10    1
    33    15     8    1
    34    15    38    1
    35    40    16    1
    36    16    39    1
    37    16    41    1
    38     8    23    1
    39     8    14    1
    40    35    14    1
    41    10    14    1
    42    10    24    1
    43    10    25    1
    44    14    34    1
@<TRIPOS>MOLECULE
11996452_10_run_18.pdb
 42 44 0 0 0
SMALL
GASTEIGER

@<TRIPOS>ATOM
      1    O      -70.3930  -90.7980  -11.7940 O.3     2  LIG2       -0.3886
      2    C      -69.3170  -87.6660   -8.6360 C.3     2  LIG2       -0.0289
      3    C      -70.5740  -87.7220   -7.7830 C.3     2  LIG2       -0.0284
      4    C      -70.6890  -87.2790   -9.2320 C.3     2  LIG2       -0.0319
      5    C      -68.4500  -88.8500   -9.1850 C.3     2  LIG2       -0.0294
      6    C      -69.0990  -90.0300   -9.9580 C.3     2  LIG2       -0.0090
      7    C      -71.3590  -88.1330  -10.3340 C.3     2  LIG2       -0.0468
      8    C      -67.4220  -89.4700   -8.1900 C.3     2  LIG2       -0.0404
      9    C      -69.5550  -89.7140  -11.4240 C.3     2  LIG2        0.0664
     10    C      -68.0920  -91.1810   -9.7940 C.3     2  LIG2       -0.0471
     11    C      -70.4360  -88.4380  -11.5310 C.3     2  LIG2       -0.0237
     12    C      -71.2490  -89.0220   -7.2840 C.3     2  LIG2       -0.0593
     13    C      -70.6960  -86.6130   -6.7190 C.3     2  LIG2       -0.0593
     14    C      -67.5130  -90.9910   -8.3950 C.3     2  LIG2       -0.0498
     15    C      -67.5700  -89.0770   -6.7060 C.3     2  LIG2       -0.0621
     16    C      -68.4170  -89.6440  -12.4700 C.3     2  LIG2       -0.0358
     17    H      -68.6500  -86.8300   -8.4190 H       2  LIG2        0.0312
     18    H      -70.8990  -86.2190   -9.3860 H       2  LIG2        0.0309
     19    H      -67.8260  -88.3580   -9.9330 H       2  LIG2        0.0310
     20    H      -69.9700  -90.3620   -9.4080 H       2  LIG2        0.0331
     21    H      -71.8160  -89.0450   -9.9560 H       2  LIG2        0.0269
     22    H      -72.2000  -87.5510  -10.7160 H       2  LIG2        0.0269
     23    H      -66.4200  -89.1580   -8.4930 H       2  LIG2        0.0301
     24    H      -68.5640  -92.1590   -9.9020 H       2  LIG2        0.0269
     25    H      -67.2860  -91.1240  -10.5250 H       2  LIG2        0.0269
     26    H      -71.0360  -88.4800  -12.4420 H       2  LIG2        0.0293
     27    H      -69.7910  -87.5690  -11.6740 H       2  LIG2        0.0293
     28    H      -72.2870  -88.8220   -7.0150 H       2  LIG2        0.0235
     29    H      -70.7600  -89.4010   -6.3880 H       2  LIG2        0.0235
     30    H      -71.2890  -89.8390   -7.9900 H       2  LIG2        0.0235
     31    H      -71.7410  -86.4170   -6.4720 H       2  LIG2        0.0235
     32    H      -70.2650  -85.6680   -7.0540 H       2  LIG2        0.0235
     33    H      -70.1810  -86.8940   -5.8010 H       2  LIG2        0.0235
     34    H      -66.5400  -91.4740   -8.3010 H       2  LIG2        0.0268
     35    H      -68.1730  -91.4470   -7.6550 H       2  LIG2        0.0268
     36    H      -68.5250  -89.3940   -6.2920 H       2  LIG2        0.0233
     37    H      -67.4830  -88.0000   -6.5660 H       2  LIG2        0.0233
     38    H      -66.7890  -89.5420   -6.1030 H       2  LIG2        0.0233
     39    H      -67.6670  -88.9000  -12.1980 H       2  LIG2        0.0257
     40    H      -68.7990  -89.3730  -13.4560 H       2  LIG2        0.0257
     41    H      -67.9050  -90.5980  -12.5910 H       2  LIG2        0.0257
     42    H      -69.8800  -91.6090  -11.7450 H       2  LIG2        0.2102
@<TRIPOS>BOND
     1    40    16    1
     2    41    16    1
     3    16    39    1
     4    16     9    1
     5    26    11    1
     6     1    42    1
     7     1     9    1
     8    27    11    1
     9    11     9    1
    10    11     7    1
    11     9     6    1
    12    22     7    1
    13    25    10    1
    14     7    21    1
    15     7     4    1
    16     6    10    1
    17     6    20    1
    18     6     5    1
    19    19     5    1
    20    24    10    1
    21    10    14    1
    22    18     4    1
    23     4     2    1
    24     4     3    1
    25     5     2    1
    26     5     8    1
    27     2    17    1
    28     2     3    1
    29    23     8    1
    30    14    34    1
    31    14     8    1
    32    14    35    1
    33     8    15    1
    34    30    12    1
    35     3    12    1
    36     3    13    1
    37    12    28    1
    38    12    29    1
    39    32    13    1
    40    13    31    1
    41    13    33    1
    42    15    37    1
    43    15    36    1
    44    15    38    1
@<TRIPOS>MOLECULE
11996452_10_run_1.pdb
 42 44 0 0 0
SMALL
GASTEIGER

@<TRIPOS>ATOM
      1    O      -70.2890  -85.4090   -6.7880 O.3     2  LIG2       -0.3886
      2    C      -71.1510  -89.6150   -8.3710 C.3     2  LIG2       -0.0289
      3    C      -72.0960  -89.2700   -9.5110 C.3     2  LIG2       -0.0284
      4    C      -72.5080  -88.9340   -8.0880 C.3     2  LIG2       -0.0319
      5    C      -69.7750  -88.9630   -8.0060 C.3     2  LIG2       -0.0294
      6    C      -69.6290  -87.4240   -7.8550 C.3     2  LIG2       -0.0090
      7    C      -72.5860  -87.4890   -7.5410 C.3     2  LIG2       -0.0468
      8    C      -68.5400  -89.4570   -8.8210 C.3     2  LIG2       -0.0404
      9    C      -70.2410  -86.8070   -6.5510 C.3     2  LIG2        0.0664
     10    C      -68.1300  -87.1670   -8.0880 C.3     2  LIG2       -0.0471
     11    C      -71.7100  -87.2480   -6.2950 C.3     2  LIG2       -0.0237
     12    C      -71.8500  -88.1590  -10.5600 C.3     2  LIG2       -0.0593
     13    C      -72.8080  -90.4720  -10.1610 C.3     2  LIG2       -0.0593
     14    C      -67.7210  -88.1960   -9.1380 C.3     2  LIG2       -0.0498
     15    C      -68.8320  -90.2900  -10.0850 C.3     2  LIG2       -0.0621
     16    C      -69.4090  -87.0200   -5.2640 C.3     2  LIG2       -0.0358
     17    H      -71.1010  -90.6760   -8.1210 H       2  LIG2        0.0312
     18    H      -73.3110  -89.5460   -7.6720 H       2  LIG2        0.0309
     19    H      -69.5930  -89.3430   -6.9990 H       2  LIG2        0.0310
     20    H      -70.1120  -86.9500   -8.7000 H       2  LIG2        0.0331
     21    H      -72.3990  -86.7300   -8.2980 H       2  LIG2        0.0269
     22    H      -73.6220  -87.3190   -7.2430 H       2  LIG2        0.0269
     23    H      -67.9310  -90.0880   -8.1700 H       2  LIG2        0.0301
     24    H      -67.9360  -86.1490   -8.4290 H       2  LIG2        0.0269
     25    H      -67.5440  -87.3270   -7.1840 H       2  LIG2        0.0269
     26    H      -72.2040  -86.5210   -5.6470 H       2  LIG2        0.0293
     27    H      -71.7120  -88.1710   -5.7130 H       2  LIG2        0.0293
     28    H      -72.7930  -87.8750  -11.0280 H       2  LIG2        0.0235
     29    H      -71.1960  -88.5080  -11.3580 H       2  LIG2        0.0235
     30    H      -71.4270  -87.2380  -10.1870 H       2  LIG2        0.0235
     31    H      -73.7560  -90.1730  -10.6130 H       2  LIG2        0.0235
     32    H      -73.0340  -91.2600   -9.4400 H       2  LIG2        0.0235
     33    H      -72.1910  -90.9170  -10.9410 H       2  LIG2        0.0235
     34    H      -66.6480  -88.3880   -9.1070 H       2  LIG2        0.0268
     35    H      -67.9530  -87.8190  -10.1370 H       2  LIG2        0.0268
     36    H      -69.3980  -89.7260  -10.8240 H       2  LIG2        0.0233
     37    H      -69.3940  -91.1940   -9.8490 H       2  LIG2        0.0233
     38    H      -67.9050  -90.6070  -10.5630 H       2  LIG2        0.0233
     39    H      -69.2340  -88.0790   -5.0690 H       2  LIG2        0.0257
     40    H      -69.9160  -86.6090   -4.3900 H       2  LIG2        0.0257
     41    H      -68.4360  -86.5310   -5.3140 H       2  LIG2        0.0257
     42    H      -70.9530  -85.2370   -7.4610 H       2  LIG2        0.2102
@<TRIPOS>BOND
     1    29    12    1
     2    28    12    1
     3    33    13    1
     4    36    15    1
     5    31    13    1
     6    38    15    1
     7    12    30    1
     8    12     3    1
     9    13     3    1
    10    13    32    1
    11    35    14    1
    12    15    37    1
    13    15     8    1
    14     3     2    1
    15     3     4    1
    16    14    34    1
    17    14     8    1
    18    14    10    1
    19     8    23    1
    20     8     5    1
    21    20     6    1
    22    24    10    1
    23     2    17    1
    24     2     4    1
    25     2     5    1
    26    21     7    1
    27     4    18    1
    28     4     7    1
    29    10     6    1
    30    10    25    1
    31     5     6    1
    32     5    19    1
    33     6     9    1
    34     7    22    1
    35     7    11    1
    36    42     1    1
    37     1     9    1
    38     9    11    1
    39     9    16    1
    40    11    27    1
    41    11    26    1
    42    41    16    1
    43    16    39    1
    44    16    40    1
@<TRIPOS>MOLECULE
11996452_10_run_13.pdb
 42 44 0 0 0
SMALL
GASTEIGER

@<TRIPOS>ATOM
      1    O      -66.2130  -89.4090   -8.9290 O.3     2  LIG2       -0.3886
      2    C      -70.6520  -88.8940   -7.9490 C.3     2  LIG2       -0.0289
      3    C      -70.6480  -87.4410   -7.4990 C.3     2  LIG2       -0.0284
      4    C      -69.8450  -88.4590   -6.7060 C.3     2  LIG2       -0.0319
      5    C      -69.9910  -89.5300   -9.2180 C.3     2  LIG2       -0.0294
      6    C      -68.4980  -89.2770   -9.5580 C.3     2  LIG2       -0.0090
      7    C      -68.2990  -88.5020   -6.6940 C.3     2  LIG2       -0.0468
      8    C      -70.7890  -89.3950  -10.5510 C.3     2  LIG2       -0.0404
      9    C      -67.4580  -90.0360   -8.6640 C.3     2  LIG2        0.0664
     10    C      -68.4110  -89.5400  -11.0720 C.3     2  LIG2       -0.0471
     11    C      -67.7120  -89.8560   -7.1410 C.3     2  LIG2       -0.0237
     12    C      -69.9540  -86.2820   -8.2540 C.3     2  LIG2       -0.0593
     13    C      -71.9570  -86.9500   -6.8500 C.3     2  LIG2       -0.0593
     14    C      -69.7460  -89.0500  -11.6260 C.3     2  LIG2       -0.0498
     15    C      -71.9720  -88.4060  -10.5550 C.3     2  LIG2       -0.0621
     16    C      -67.2840  -91.5400   -8.9840 C.3     2  LIG2       -0.0358
     17    H      -71.5750  -89.4370   -7.7380 H       2  LIG2        0.0312
     18    H      -70.2450  -88.7110   -5.7220 H       2  LIG2        0.0309
     19    H      -70.0320  -90.5970   -8.9950 H       2  LIG2        0.0310
     20    H      -68.2990  -88.2170   -9.4640 H       2  LIG2        0.0331
     21    H      -67.8390  -87.6810   -7.2400 H       2  LIG2        0.0269
     22    H      -67.9870  -88.3430   -5.6600 H       2  LIG2        0.0269
     23    H      -71.2060  -90.3740  -10.8010 H       2  LIG2        0.0301
     24    H      -67.5710  -89.0170  -11.5320 H       2  LIG2        0.0269
     25    H      -68.2990  -90.6000  -11.2950 H       2  LIG2        0.0269
     26    H      -66.7890  -90.0440   -6.5900 H       2  LIG2        0.0293
     27    H      -68.3940  -90.6360   -6.7970 H       2  LIG2        0.0293
     28    H      -69.7880  -85.4440   -7.5770 H       2  LIG2        0.0235
     29    H      -70.5780  -85.9110   -9.0660 H       2  LIG2        0.0235
     30    H      -68.9850  -86.5030   -8.6790 H       2  LIG2        0.0235
     31    H      -71.7710  -86.1200   -6.1650 H       2  LIG2        0.0235
     32    H      -72.4540  -87.7320   -6.2740 H       2  LIG2        0.0235
     33    H      -72.6640  -86.6080   -7.6050 H       2  LIG2        0.0235
     34    H      -69.9740  -89.5210  -12.5820 H       2  LIG2        0.0268
     35    H      -69.7030  -87.9730  -11.7980 H       2  LIG2        0.0268
     36    H      -71.6510  -87.3840  -10.3630 H       2  LIG2        0.0233
     37    H      -72.7180  -88.6700   -9.8050 H       2  LIG2        0.0233
     38    H      -72.4760  -88.4090  -11.5220 H       2  LIG2        0.0233
     39    H      -68.2300  -92.0790   -8.9070 H       2  LIG2        0.0257
     40    H      -66.5850  -92.0150   -8.2940 H       2  LIG2        0.0257
     41    H      -66.8900  -91.7090   -9.9860 H       2  LIG2        0.0257
     42    H      -66.0670  -88.7310   -8.2650 H       2  LIG2        0.2102
@<TRIPOS>BOND
     1    34    14    1
     2    35    14    1
     3    14    10    1
     4    14     8    1
     5    24    10    1
     6    38    15    1
     7    25    10    1
     8    10     6    1
     9    23     8    1
    10    15     8    1
    11    15    36    1
    12    15    37    1
    13     8     5    1
    14    41    16    1
    15     6    20    1
    16     6     5    1
    17     6     9    1
    18     5    19    1
    19     5     2    1
    20    29    12    1
    21    16    39    1
    22    16     9    1
    23    16    40    1
    24     1     9    1
    25     1    42    1
    26    30    12    1
    27     9    11    1
    28    12    28    1
    29    12     3    1
    30     2    17    1
    31     2     3    1
    32     2     4    1
    33    33    13    1
    34     3    13    1
    35     3     4    1
    36    21     7    1
    37    11    27    1
    38    11     7    1
    39    11    26    1
    40    13    32    1
    41    13    31    1
    42     4     7    1
    43     4    18    1
    44     7    22    1
@<TRIPOS>MOLECULE
11996452_10_run_16.pdb
 42 44 0 0 0
SMALL
GASTEIGER

@<TRIPOS>ATOM
      1    O      -66.4490  -88.2110   -5.4260 O.3     2  LIG2       -0.3886
      2    C      -70.1080  -88.3300   -8.1710 C.3     2  LIG2       -0.0289
      3    C      -69.4150  -88.4790   -9.5150 C.3     2  LIG2       -0.0284
      4    C      -69.1650  -87.2250   -8.6960 C.3     2  LIG2       -0.0319
      5    C      -69.8500  -89.1130   -6.8400 C.3     2  LIG2       -0.0294
      6    C      -68.4200  -89.2470   -6.2520 C.3     2  LIG2       -0.0090
      7    C      -67.8190  -86.9160   -7.9980 C.3     2  LIG2       -0.0468
      8    C      -70.5200  -90.5170   -6.7250 C.3     2  LIG2       -0.0404
      9    C      -67.8370  -87.9570   -5.5780 C.3     2  LIG2        0.0664
     10    C      -68.4980  -90.5000   -5.3620 C.3     2  LIG2       -0.0471
     11    C      -67.9450  -86.6940   -6.4770 C.3     2  LIG2       -0.0237
     12    C      -68.2750  -89.4820   -9.8170 C.3     2  LIG2       -0.0593
     13    C      -70.3270  -88.3190  -10.7480 C.3     2  LIG2       -0.0593
     14    C      -69.4590  -91.4320   -6.0930 C.3     2  LIG2       -0.0498
     15    C      -71.1010  -91.1160   -8.0220 C.3     2  LIG2       -0.0621
     16    C      -68.3950  -87.6360   -4.1700 C.3     2  LIG2       -0.0358
     17    H      -71.1740  -88.0980   -8.2270 H       2  LIG2        0.0312
     18    H      -69.6150  -86.3100   -9.0850 H       2  LIG2        0.0309
     19    H      -70.3810  -88.5090   -6.1030 H       2  LIG2        0.0310
     20    H      -67.7450  -89.5330   -7.0490 H       2  LIG2        0.0331
     21    H      -67.0410  -87.6420   -8.2200 H       2  LIG2        0.0269
     22    H      -67.4470  -85.9850   -8.4290 H       2  LIG2        0.0269
     23    H      -71.3520  -90.4430   -6.0210 H       2  LIG2        0.0301
     24    H      -67.5210  -90.9650   -5.2190 H       2  LIG2        0.0269
     25    H      -68.9000  -90.2740   -4.3750 H       2  LIG2        0.0269
     26    H      -67.2060  -85.9540   -6.1630 H       2  LIG2        0.0293
     27    H      -68.9050  -86.2070   -6.2970 H       2  LIG2        0.0293
     28    H      -67.7210  -89.1610  -10.6990 H       2  LIG2        0.0235
     29    H      -68.6700  -90.4730  -10.0370 H       2  LIG2        0.0235
     30    H      -67.5320  -89.6050   -9.0420 H       2  LIG2        0.0235
     31    H      -69.7590  -87.9850  -11.6180 H       2  LIG2        0.0235
     32    H      -71.1200  -87.5880  -10.5840 H       2  LIG2        0.0235
     33    H      -70.8070  -89.2630  -11.0040 H       2  LIG2        0.0235
     34    H      -69.9020  -92.1580   -5.4110 H       2  LIG2        0.0268
     35    H      -68.9210  -91.9950   -6.8580 H       2  LIG2        0.0268
     36    H      -70.3350  -91.2770   -8.7770 H       2  LIG2        0.0233
     37    H      -71.8680  -90.4710   -8.4530 H       2  LIG2        0.0233
     38    H      -71.5680  -92.0810   -7.8270 H       2  LIG2        0.0233
     39    H      -69.4810  -87.5320   -4.1830 H       2  LIG2        0.0257
     40    H      -67.9850  -86.7020   -3.7830 H       2  LIG2        0.0257
     41    H      -68.1480  -88.4070   -3.4400 H       2  LIG2        0.0257
     42    H      -66.0340  -88.1550   -6.2900 H       2  LIG2        0.2102
@<TRIPOS>BOND
     1    31    13    1
     2    33    13    1
     3    13    32    1
     4    13     3    1
     5    28    12    1
     6    29    12    1
     7    12     3    1
     8    12    30    1
     9     3     4    1
    10     3     2    1
    11    18     4    1
    12    36    15    1
    13     4     2    1
    14     4     7    1
    15    37    15    1
    16    22     7    1
    17    17     2    1
    18    21     7    1
    19     2     5    1
    20    15    38    1
    21    15     8    1
    22     7    11    1
    23    20     6    1
    24    35    14    1
    25     5     8    1
    26     5     6    1
    27     5    19    1
    28     8    14    1
    29     8    23    1
    30    11    27    1
    31    11    26    1
    32    11     9    1
    33    42     1    1
    34     6     9    1
    35     6    10    1
    36    14    34    1
    37    14    10    1
    38     9     1    1
    39     9    16    1
    40    10    24    1
    41    10    25    1
    42    39    16    1
    43    16    40    1
    44    16    41    1
@<TRIPOS>MOLECULE
11996452_10_run_14.pdb
 42 44 0 0 0
SMALL
GASTEIGER

@<TRIPOS>ATOM
      1    O      -70.2890  -85.8910   -7.9900 O.3     2  LIG2       -0.3886
      2    C      -70.2560  -90.2510   -9.3750 C.3     2  LIG2       -0.0289
      3    C      -69.8370  -90.0560  -10.8240 C.3     2  LIG2       -0.0284
      4    C      -71.1510  -89.4560  -10.3520 C.3     2  LIG2       -0.0319
      5    C      -69.6370  -89.6250   -8.0810 C.3     2  LIG2       -0.0294
      6    C      -69.4060  -88.0940   -7.9610 C.3     2  LIG2       -0.0090
      7    C      -71.3810  -87.9370  -10.1790 C.3     2  LIG2       -0.0468
      8    C      -68.3570  -90.3210   -7.5230 C.3     2  LIG2       -0.0404
      9    C      -70.6920  -87.2280   -7.7360 C.3     2  LIG2        0.0664
     10    C      -68.3070  -87.9660   -6.8920 C.3     2  LIG2       -0.0471
     11    C      -71.8230  -87.5340   -8.7580 C.3     2  LIG2       -0.0237
     12    C      -68.6670  -89.1590  -11.2940 C.3     2  LIG2       -0.0593
     13    C      -69.9410  -91.3110  -11.7130 C.3     2  LIG2       -0.0593
     14    C      -67.4110  -89.1820   -7.1110 C.3     2  LIG2       -0.0498
     15    C      -67.6640  -91.3430   -8.4470 C.3     2  LIG2       -0.0621
     16    C      -71.2710  -87.2610   -6.3020 C.3     2  LIG2       -0.0358
     17    H      -70.6110  -91.2550   -9.1310 H       2  LIG2        0.0312
     18    H      -72.0530  -89.9410  -10.7300 H       2  LIG2        0.0309
     19    H      -70.3990  -89.8350   -7.3290 H       2  LIG2        0.0310
     20    H      -68.9300  -87.7460   -8.8690 H       2  LIG2        0.0331
     21    H      -70.5380  -87.3320  -10.5080 H       2  LIG2        0.0269
     22    H      -72.1890  -87.6610  -10.8580 H       2  LIG2        0.0269
     23    H      -68.6320  -90.8640   -6.6150 H       2  LIG2        0.0301
     24    H      -67.7460  -87.0340   -6.9880 H       2  LIG2        0.0269
     25    H      -68.7150  -88.0000   -5.8820 H       2  LIG2        0.0269
     26    H      -72.5000  -86.6790   -8.8240 H       2  LIG2        0.0293
     27    H      -72.4480  -88.3400   -8.3700 H       2  LIG2        0.0293
     28    H      -68.7920  -88.9080  -12.3470 H       2  LIG2        0.0235
     29    H      -67.7130  -89.6770  -11.2050 H       2  LIG2        0.0235
     30    H      -68.5590  -88.2130  -10.7850 H       2  LIG2        0.0235
     31    H      -70.0780  -91.0410  -12.7620 H       2  LIG2        0.0235
     32    H      -70.7820  -91.9490  -11.4350 H       2  LIG2        0.0235
     33    H      -69.0390  -91.9180  -11.6390 H       2  LIG2        0.0235
     34    H      -66.8480  -89.4250   -6.2100 H       2  LIG2        0.0268
     35    H      -66.6860  -88.9710   -7.9000 H       2  LIG2        0.0268
     36    H      -67.3060  -90.8840   -9.3670 H       2  LIG2        0.0233
     37    H      -68.3350  -92.1590   -8.7170 H       2  LIG2        0.0233
     38    H      -66.8020  -91.7890   -7.9520 H       2  LIG2        0.0233
     39    H      -71.5080  -88.2790   -5.9880 H       2  LIG2        0.0257
     40    H      -72.1900  -86.6780   -6.2300 H       2  LIG2        0.0257
     41    H      -70.5830  -86.8430   -5.5670 H       2  LIG2        0.0257
     42    H      -71.0660  -85.3280   -7.9580 H       2  LIG2        0.2102
@<TRIPOS>BOND
     1    31    13    1
     2    28    12    1
     3    13    33    1
     4    13    32    1
     5    13     3    1
     6    12    29    1
     7    12     3    1
     8    12    30    1
     9    22     7    1
    10     3     4    1
    11     3     2    1
    12    18     4    1
    13    21     7    1
    14     4     7    1
    15     4     2    1
    16     7    11    1
    17     2    17    1
    18     2     5    1
    19    36    15    1
    20    20     6    1
    21    26    11    1
    22    11    27    1
    23    11     9    1
    24    37    15    1
    25    15    38    1
    26    15     8    1
    27     5     6    1
    28     5     8    1
    29     5    19    1
    30     1    42    1
    31     1     9    1
    32     6     9    1
    33     6    10    1
    34    35    14    1
    35     9    16    1
    36     8    14    1
    37     8    23    1
    38    14    10    1
    39    14    34    1
    40    24    10    1
    41    10    25    1
    42    16    40    1
    43    16    39    1
    44    16    41    1
