@<TRIPOS>MOLECULE
11996452_6_run_3.pdb
 42 44 0 0 0
SMALL
GASTEIGER

@<TRIPOS>ATOM
      1    O      -64.8040  -80.4090  -10.9280 O.3     2  LIG2       -0.3886
      2    C      -62.4580  -78.3840  -14.2060 C.3     2  LIG2       -0.0289
      3    C      -60.9840  -77.9840  -14.3670 C.3     2  LIG2       -0.0284
      4    C      -61.5700  -78.1540  -12.9790 C.3     2  LIG2       -0.0319
      5    C      -63.1540  -79.7730  -14.4000 C.3     2  LIG2       -0.0294
      6    C      -64.1540  -80.2150  -13.2810 C.3     2  LIG2       -0.0090
      7    C      -61.3190  -79.3600  -12.0500 C.3     2  LIG2       -0.0468
      8    C      -62.3560  -81.0370  -14.8400 C.3     2  LIG2       -0.0404
      9    C      -63.9620  -79.6800  -11.8090 C.3     2  LIG2        0.0664
     10    C      -64.2370  -81.7490  -13.4530 C.3     2  LIG2       -0.0471
     11    C      -62.5300  -79.7790  -11.1890 C.3     2  LIG2       -0.0237
     12    C      -59.8350  -78.9100  -14.8320 C.3     2  LIG2       -0.0593
     13    C      -60.7480  -76.5350  -14.8400 C.3     2  LIG2       -0.0593
     14    C      -62.8770  -82.1940  -13.9750 C.3     2  LIG2       -0.0498
     15    C      -62.4200  -81.3250  -16.3530 C.3     2  LIG2       -0.0621
     16    C      -64.5330  -78.2440  -11.6430 C.3     2  LIG2       -0.0358
     17    H      -63.1820  -77.5950  -14.4180 H       2  LIG2        0.0312
     18    H      -61.6920  -77.2360  -12.4030 H       2  LIG2        0.0309
     19    H      -63.8100  -79.5760  -15.2510 H       2  LIG2        0.0310
     20    H      -65.1370  -79.8450  -13.5810 H       2  LIG2        0.0331
     21    H      -60.9900  -80.2340  -12.5990 H       2  LIG2        0.0269
     22    H      -60.4830  -79.1220  -11.3910 H       2  LIG2        0.0269
     23    H      -61.3090  -80.9590  -14.5960 H       2  LIG2        0.0301
     24    H      -64.4860  -82.2890  -12.5400 H       2  LIG2        0.0269
     25    H      -65.0110  -81.9990  -14.1790 H       2  LIG2        0.0269
     26    H      -62.3430  -80.8100  -10.8810 H       2  LIG2        0.0293
     27    H      -62.5010  -79.1950  -10.2680 H       2  LIG2        0.0293
     28    H      -58.8820  -78.3800  -14.8090 H       2  LIG2        0.0235
     29    H      -59.9910  -79.2350  -15.8600 H       2  LIG2        0.0235
     30    H      -59.6670  -79.7870  -14.2150 H       2  LIG2        0.0235
     31    H      -59.7890  -76.1550  -14.4860 H       2  LIG2        0.0235
     32    H      -61.5150  -75.8500  -14.4770 H       2  LIG2        0.0235
     33    H      -60.7510  -76.4760  -15.9290 H       2  LIG2        0.0235
     34    H      -62.9570  -83.1320  -14.5270 H       2  LIG2        0.0268
     35    H      -62.1990  -82.3750  -13.1400 H       2  LIG2        0.0268
     36    H      -63.4440  -81.5140  -16.6810 H       2  LIG2        0.0233
     37    H      -61.8230  -82.2000  -16.6140 H       2  LIG2        0.0233
     38    H      -62.0360  -80.4830  -16.9290 H       2  LIG2        0.0233
     39    H      -64.0220  -77.5010  -12.2490 H       2  LIG2        0.0257
     40    H      -64.4710  -77.8950  -10.6110 H       2  LIG2        0.0257
     41    H      -65.5850  -78.1950  -11.9280 H       2  LIG2        0.0257
     42    H      -64.6320  -80.1140  -10.0300 H       2  LIG2        0.2102
@<TRIPOS>BOND
     1    38    15    1
     2    36    15    1
     3    37    15    1
     4    15     8    1
     5    33    13    1
     6    29    12    1
     7    19     5    1
     8    13    31    1
     9    13    32    1
    10    13     3    1
    11     8    23    1
    12     8     5    1
    13     8    14    1
    14    12    28    1
    15    12     3    1
    16    12    30    1
    17    34    14    1
    18    17     2    1
    19     5     2    1
    20     5     6    1
    21     3     2    1
    22     3     4    1
    23     2     4    1
    24    25    10    1
    25    14    10    1
    26    14    35    1
    27    20     6    1
    28    10     6    1
    29    10    24    1
    30     6     9    1
    31     4    18    1
    32     4     7    1
    33    21     7    1
    34    39    16    1
    35     7    22    1
    36     7    11    1
    37    41    16    1
    38     9    16    1
    39     9    11    1
    40     9     1    1
    41    16    40    1
    42    11    26    1
    43    11    27    1
    44     1    42    1
@<TRIPOS>MOLECULE
11996452_6_run_9.pdb
 42 44 0 0 0
SMALL
GASTEIGER

@<TRIPOS>ATOM
      1    O      -63.8790  -77.4260  -10.8880 O.3     2  LIG2       -0.3886
      2    C      -62.0610  -80.8080  -13.2580 C.3     2  LIG2       -0.0289
      3    C      -62.5610  -81.6810  -14.4170 C.3     2  LIG2       -0.0284
      4    C      -63.5610  -81.0100  -13.4960 C.3     2  LIG2       -0.0319
      5    C      -61.4730  -79.3560  -13.2680 C.3     2  LIG2       -0.0294
      6    C      -62.0330  -78.3680  -12.1930 C.3     2  LIG2       -0.0090
      7    C      -64.3980  -79.7640  -13.8490 C.3     2  LIG2       -0.0468
      8    C      -61.2900  -78.5540  -14.5920 C.3     2  LIG2       -0.0404
      9    C      -63.4940  -78.5720  -11.6330 C.3     2  LIG2        0.0664
     10    C      -61.7050  -76.9740  -12.7750 C.3     2  LIG2       -0.0471
     11    C      -64.6390  -78.7900  -12.6760 C.3     2  LIG2       -0.0237
     12    C      -62.5310  -81.3070  -15.9190 C.3     2  LIG2       -0.0593
     13    C      -62.3600  -83.1980  -14.2250 C.3     2  LIG2       -0.0593
     14    C      -61.7540  -77.1220  -14.2900 C.3     2  LIG2       -0.0498
     15    C      -59.8660  -78.6270  -15.1790 C.3     2  LIG2       -0.0621
     16    C      -63.5380  -79.6700  -10.5340 C.3     2  LIG2       -0.0358
     17    H      -61.6410  -81.3510  -12.4090 H       2  LIG2        0.0312
     18    H      -64.1150  -81.6790  -12.8360 H       2  LIG2        0.0309
     19    H      -60.4490  -79.5300  -12.9310 H       2  LIG2        0.0310
     20    H      -61.3880  -78.4660  -11.3170 H       2  LIG2        0.0331
     21    H      -63.9580  -79.1950  -14.6610 H       2  LIG2        0.0269
     22    H      -65.3620  -80.0910  -14.2400 H       2  LIG2        0.0269
     23    H      -61.9510  -78.9010  -15.3690 H       2  LIG2        0.0301
     24    H      -62.3800  -76.1830  -12.4500 H       2  LIG2        0.0269
     25    H      -60.7040  -76.6700  -12.4650 H       2  LIG2        0.0269
     26    H      -64.9030  -77.8300  -13.1260 H       2  LIG2        0.0293
     27    H      -65.5390  -79.1180  -12.1520 H       2  LIG2        0.0293
     28    H      -62.9940  -82.0910  -16.5180 H       2  LIG2        0.0235
     29    H      -61.5060  -81.2020  -16.2710 H       2  LIG2        0.0235
     30    H      -63.0800  -80.4090  -16.1830 H       2  LIG2        0.0235
     31    H      -63.1120  -83.7690  -14.7730 H       2  LIG2        0.0235
     32    H      -62.4340  -83.4970  -13.1790 H       2  LIG2        0.0235
     33    H      -61.3790  -83.5090  -14.5820 H       2  LIG2        0.0235
     34    H      -61.1360  -76.3650  -14.7770 H       2  LIG2        0.0268
     35    H      -62.7750  -76.9730  -14.6450 H       2  LIG2        0.0268
     36    H      -59.1290  -78.2060  -14.4940 H       2  LIG2        0.0233
     37    H      -59.7980  -78.0760  -16.1170 H       2  LIG2        0.0233
     38    H      -59.5790  -79.6590  -15.3840 H       2  LIG2        0.0233
     39    H      -63.2680  -80.6570  -10.8960 H       2  LIG2        0.0257
     40    H      -64.5310  -79.7650  -10.0900 H       2  LIG2        0.0257
     41    H      -62.8490  -79.4470   -9.7170 H       2  LIG2        0.0257
     42    H      -63.2070  -77.2580  -10.2220 H       2  LIG2        0.2102
@<TRIPOS>BOND
     1    28    12    1
     2    29    12    1
     3    30    12    1
     4    37    15    1
     5    12     3    1
     6    38    15    1
     7    23     8    1
     8    15     8    1
     9    15    36    1
    10    34    14    1
    11    31    13    1
    12    21     7    1
    13    35    14    1
    14     8    14    1
    15     8     5    1
    16    33    13    1
    17     3    13    1
    18     3     4    1
    19     3     2    1
    20    14    10    1
    21    22     7    1
    22    13    32    1
    23     7     4    1
    24     7    11    1
    25     4     2    1
    26     4    18    1
    27     5     2    1
    28     5    19    1
    29     5     6    1
    30     2    17    1
    31    26    11    1
    32    10    25    1
    33    10    24    1
    34    10     6    1
    35    11    27    1
    36    11     9    1
    37     6     9    1
    38     6    20    1
    39     9     1    1
    40     9    16    1
    41    39    16    1
    42     1    42    1
    43    16    40    1
    44    16    41    1
@<TRIPOS>MOLECULE
11996452_6_run_24.pdb
 42 44 0 0 0
SMALL
GASTEIGER

@<TRIPOS>ATOM
      1    O      -67.0930  -87.2460  -10.0000 O.3     2  LIG2       -0.3886
      2    C      -70.6310  -89.0520   -7.8610 C.3     2  LIG2       -0.0289
      3    C      -70.9080  -90.4290   -7.2400 C.3     2  LIG2       -0.0284
      4    C      -69.8660  -90.2920   -8.3340 C.3     2  LIG2       -0.0319
      5    C      -69.8330  -87.8300   -7.2930 C.3     2  LIG2       -0.0294
      6    C      -68.8200  -87.1430   -8.2670 C.3     2  LIG2       -0.0090
      7    C      -68.3400  -90.3110   -8.1140 C.3     2  LIG2       -0.0468
      8    C      -69.1760  -87.8640   -5.8800 C.3     2  LIG2       -0.0404
      9    C      -68.1580  -87.9870   -9.4240 C.3     2  LIG2        0.0664
     10    C      -67.8540  -86.3960   -7.3180 C.3     2  LIG2       -0.0471
     11    C      -67.5390  -89.3710   -9.0420 C.3     2  LIG2       -0.0237
     12    C      -70.4800  -90.8930   -5.8280 C.3     2  LIG2       -0.0593
     13    C      -72.2500  -91.0700   -7.6470 C.3     2  LIG2       -0.0593
     14    C      -67.7910  -87.2190   -6.0380 C.3     2  LIG2       -0.0498
     15    C      -70.0310  -87.2170   -4.7730 C.3     2  LIG2       -0.0621
     16    C      -69.1120  -88.1320  -10.6430 C.3     2  LIG2       -0.0358
     17    H      -71.3990  -88.6830   -8.5440 H       2  LIG2        0.0312
     18    H      -70.1280  -90.7410   -9.2930 H       2  LIG2        0.0309
     19    H      -70.6200  -87.0800   -7.1900 H       2  LIG2        0.0310
     20    H      -69.3720  -86.3550   -8.7830 H       2  LIG2        0.0331
     21    H      -68.0730  -90.0660   -7.0920 H       2  LIG2        0.0269
     22    H      -67.9810  -91.3310   -8.2510 H       2  LIG2        0.0269
     23    H      -68.9760  -88.8710   -5.5520 H       2  LIG2        0.0301
     24    H      -66.8530  -86.2500   -7.7230 H       2  LIG2        0.0269
     25    H      -68.2460  -85.4020   -7.0990 H       2  LIG2        0.0269
     26    H      -66.5750  -89.2100   -8.5540 H       2  LIG2        0.0293
     27    H      -67.3100  -89.9230   -9.9550 H       2  LIG2        0.0293
     28    H      -70.7640  -91.9340   -5.6650 H       2  LIG2        0.0235
     29    H      -70.9780  -90.3050   -5.0590 H       2  LIG2        0.0235
     30    H      -69.4110  -90.8750   -5.6380 H       2  LIG2        0.0235
     31    H      -72.1960  -92.1590   -7.6070 H       2  LIG2        0.0235
     32    H      -72.5470  -90.8030   -8.6620 H       2  LIG2        0.0235
     33    H      -73.0520  -90.7500   -6.9810 H       2  LIG2        0.0235
     34    H      -67.5150  -86.5970   -5.1860 H       2  LIG2        0.0268
     35    H      -67.0240  -87.9900   -6.1290 H       2  LIG2        0.0268
     36    H      -70.2090  -86.1590   -4.9720 H       2  LIG2        0.0233
     37    H      -69.5420  -87.2930   -3.8010 H       2  LIG2        0.0233
     38    H      -71.0020  -87.7080   -4.6900 H       2  LIG2        0.0233
     39    H      -70.0210  -88.6820  -10.4210 H       2  LIG2        0.0257
     40    H      -68.6340  -88.6510  -11.4770 H       2  LIG2        0.0257
     41    H      -69.4310  -87.1590  -11.0210 H       2  LIG2        0.0257
     42    H      -67.4050  -86.3550  -10.1790 H       2  LIG2        0.2102
@<TRIPOS>BOND
     1    40    16    1
     2    41    16    1
     3    16    39    1
     4    16     9    1
     5    42     1    1
     6     1     9    1
     7    27    11    1
     8     9    11    1
     9     9     6    1
    10    18     4    1
    11    11    26    1
    12    11     7    1
    13    20     6    1
    14    32    13    1
    15    17     2    1
    16     4     7    1
    17     4     2    1
    18     4     3    1
    19     6    10    1
    20     6     5    1
    21    22     7    1
    22     7    21    1
    23     2     5    1
    24     2     3    1
    25    24    10    1
    26    13    31    1
    27    13     3    1
    28    13    33    1
    29    10    25    1
    30    10    14    1
    31     5    19    1
    32     5     8    1
    33     3    12    1
    34    35    14    1
    35    14     8    1
    36    14    34    1
    37     8    23    1
    38     8    15    1
    39    12    28    1
    40    12    30    1
    41    12    29    1
    42    36    15    1
    43    15    38    1
    44    15    37    1
@<TRIPOS>MOLECULE
11996452_6_run_11.pdb
 42 44 0 0 0
SMALL
GASTEIGER

@<TRIPOS>ATOM
      1    O      -61.2850  -82.0400  -13.9380 O.3     2  LIG2       -0.3886
      2    C      -63.9520  -78.4420  -13.3940 C.3     2  LIG2       -0.0289
      3    C      -64.4720  -77.6800  -12.1660 C.3     2  LIG2       -0.0284
      4    C      -64.0480  -79.1290  -12.0280 C.3     2  LIG2       -0.0319
      5    C      -62.5650  -78.3640  -14.1170 C.3     2  LIG2       -0.0294
      6    C      -61.8880  -79.7280  -14.4750 C.3     2  LIG2       -0.0090
      7    C      -62.7330  -79.6130  -11.3840 C.3     2  LIG2       -0.0468
      8    C      -61.4430  -77.3940  -13.6390 C.3     2  LIG2       -0.0404
      9    C      -62.1990  -81.0050  -13.6030 C.3     2  LIG2        0.0664
     10    C      -60.3970  -79.3570  -14.6500 C.3     2  LIG2       -0.0471
     11    C      -62.1020  -80.8560  -12.0500 C.3     2  LIG2       -0.0237
     12    C      -63.7110  -76.5810  -11.3860 C.3     2  LIG2       -0.0593
     13    C      -65.9900  -77.4050  -12.1630 C.3     2  LIG2       -0.0593
     14    C      -60.1330  -78.1920  -13.7050 C.3     2  LIG2       -0.0498
     15    C      -61.3910  -76.0630  -14.4150 C.3     2  LIG2       -0.0621
     16    C      -63.5490  -81.6590  -14.0080 C.3     2  LIG2       -0.0358
     17    H      -64.7130  -78.7310  -14.1210 H       2  LIG2        0.0312
     18    H      -64.8560  -79.8410  -11.8510 H       2  LIG2        0.0309
     19    H      -62.8470  -77.9670  -15.0950 H       2  LIG2        0.0310
     20    H      -62.2310  -79.9900  -15.4780 H       2  LIG2        0.0331
     21    H      -61.9790  -78.8340  -11.3650 H       2  LIG2        0.0269
     22    H      -62.9210  -79.8340  -10.3320 H       2  LIG2        0.0269
     23    H      -61.5540  -77.1290  -12.6010 H       2  LIG2        0.0301
     24    H      -59.7060  -80.1740  -14.4450 H       2  LIG2        0.0269
     25    H      -60.2110  -79.0470  -15.6790 H       2  LIG2        0.0269
     26    H      -61.0520  -80.8600  -11.7530 H       2  LIG2        0.0293
     27    H      -62.5370  -81.7400  -11.5800 H       2  LIG2        0.0293
     28    H      -64.2950  -76.2460  -10.5290 H       2  LIG2        0.0235
     29    H      -63.5400  -75.7080  -12.0140 H       2  LIG2        0.0235
     30    H      -62.7620  -76.8900  -10.9590 H       2  LIG2        0.0235
     31    H      -66.3750  -77.3280  -11.1450 H       2  LIG2        0.0235
     32    H      -66.5560  -78.1950  -12.6570 H       2  LIG2        0.0235
     33    H      -66.2170  -76.4720  -12.6790 H       2  LIG2        0.0235
     34    H      -59.2890  -77.5920  -14.0490 H       2  LIG2        0.0268
     35    H      -59.8700  -78.5680  -12.7150 H       2  LIG2        0.0268
     36    H      -61.1850  -76.2250  -15.4750 H       2  LIG2        0.0233
     37    H      -60.6100  -75.4090  -14.0250 H       2  LIG2        0.0233
     38    H      -62.3370  -75.5260  -14.3380 H       2  LIG2        0.0233
     39    H      -64.4100  -81.0210  -13.8340 H       2  LIG2        0.0257
     40    H      -63.7360  -82.5850  -13.4610 H       2  LIG2        0.0257
     41    H      -63.5700  -81.9130  -15.0690 H       2  LIG2        0.0257
     42    H      -61.2850  -82.1470  -14.8920 H       2  LIG2        0.2102
@<TRIPOS>BOND
     1    25    10    1
     2    20     6    1
     3    36    15    1
     4    19     5    1
     5    41    16    1
     6    42     1    1
     7    10     6    1
     8    10    24    1
     9    10    14    1
    10     6     5    1
    11     6     9    1
    12    15    38    1
    13    15    37    1
    14    15     8    1
    15    17     2    1
    16     5     8    1
    17     5     2    1
    18    34    14    1
    19    16    39    1
    20    16     9    1
    21    16    40    1
    22     1     9    1
    23    14     8    1
    24    14    35    1
    25     8    23    1
    26     9    11    1
    27     2     3    1
    28     2     4    1
    29    33    13    1
    30    32    13    1
    31     3    13    1
    32     3     4    1
    33     3    12    1
    34    13    31    1
    35    11    26    1
    36    11    27    1
    37    11     7    1
    38     4    18    1
    39     4     7    1
    40    29    12    1
    41    12    30    1
    42    12    28    1
    43     7    21    1
    44     7    22    1
@<TRIPOS>MOLECULE
11996452_6_run_20.pdb
 42 44 0 0 0
SMALL
GASTEIGER

@<TRIPOS>ATOM
      1    O      -60.2320  -78.9810  -15.8260 O.3     2  LIG2       -0.3886
      2    C      -62.2890  -80.0940  -11.9680 C.3     2  LIG2       -0.0289
      3    C      -63.2560  -79.3590  -11.0290 C.3     2  LIG2       -0.0284
      4    C      -62.3360  -78.5640  -11.9340 C.3     2  LIG2       -0.0319
      5    C      -62.5640  -80.8390  -13.3180 C.3     2  LIG2       -0.0294
      6    C      -61.5830  -80.5320  -14.4970 C.3     2  LIG2       -0.0090
      7    C      -62.7680  -77.8380  -13.2250 C.3     2  LIG2       -0.0468
      8    C      -63.9980  -80.9490  -13.9190 C.3     2  LIG2       -0.0404
      9    C      -60.8480  -79.1370  -14.5560 C.3     2  LIG2        0.0664
     10    C      -62.3850  -80.9440  -15.7530 C.3     2  LIG2       -0.0471
     11    C      -61.7220  -77.8560  -14.3610 C.3     2  LIG2       -0.0237
     12    C      -64.7900  -79.2470  -11.2060 C.3     2  LIG2       -0.0593
     13    C      -62.8780  -79.4070   -9.5350 C.3     2  LIG2       -0.0593
     14    C      -63.8500  -80.6930  -15.4250 C.3     2  LIG2       -0.0498
     15    C      -64.7180  -82.2720  -13.5890 C.3     2  LIG2       -0.0621
     16    C      -59.6080  -79.1040  -13.6190 C.3     2  LIG2       -0.0358
     17    H      -61.4240  -80.5500  -11.4850 H       2  LIG2        0.0312
     18    H      -61.5340  -78.0220  -11.4300 H       2  LIG2        0.0309
     19    H      -62.3170  -81.8710  -13.0560 H       2  LIG2        0.0310
     20    H      -60.7750  -81.2650  -14.4270 H       2  LIG2        0.0331
     21    H      -63.6920  -78.2370  -13.6250 H       2  LIG2        0.0269
     22    H      -63.0040  -76.8020  -12.9790 H       2  LIG2        0.0269
     23    H      -64.6450  -80.1620  -13.5660 H       2  LIG2        0.0301
     24    H      -62.1020  -80.4090  -16.6590 H       2  LIG2        0.0269
     25    H      -62.2290  -82.0040  -15.9610 H       2  LIG2        0.0269
     26    H      -62.2700  -77.6510  -15.2820 H       2  LIG2        0.0293
     27    H      -61.0650  -76.9960  -14.2200 H       2  LIG2        0.0293
     28    H      -65.2220  -78.6270  -10.4200 H       2  LIG2        0.0235
     29    H      -65.2610  -80.2260  -11.1330 H       2  LIG2        0.0235
     30    H      -65.1160  -78.7760  -12.1280 H       2  LIG2        0.0235
     31    H      -63.2570  -78.5330   -9.0030 H       2  LIG2        0.0235
     32    H      -61.7980  -79.4280   -9.3810 H       2  LIG2        0.0235
     33    H      -63.2910  -80.2950   -9.0570 H       2  LIG2        0.0235
     34    H      -64.5010  -81.3280  -16.0280 H       2  LIG2        0.0268
     35    H      -64.1120  -79.6600  -15.6600 H       2  LIG2        0.0268
     36    H      -64.1810  -83.1310  -13.9930 H       2  LIG2        0.0233
     37    H      -65.7260  -82.2870  -14.0050 H       2  LIG2        0.0233
     38    H      -64.8070  -82.4110  -12.5110 H       2  LIG2        0.0233
     39    H      -59.8560  -79.2120  -12.5670 H       2  LIG2        0.0257
     40    H      -59.0520  -78.1690  -13.7100 H       2  LIG2        0.0257
     41    H      -58.9080  -79.9090  -13.8500 H       2  LIG2        0.0257
     42    H      -60.0390  -79.8540  -16.1790 H       2  LIG2        0.2102
@<TRIPOS>BOND
     1    24    10    1
     2    42     1    1
     3    34    14    1
     4    25    10    1
     5     1     9    1
     6    10    14    1
     7    10     6    1
     8    35    14    1
     9    14     8    1
    10    26    11    1
    11     9     6    1
    12     9    11    1
    13     9    16    1
    14     6    20    1
    15     6     5    1
    16    11    27    1
    17    11     7    1
    18    37    15    1
    19    36    15    1
    20     8    15    1
    21     8    23    1
    22     8     5    1
    23    41    16    1
    24    40    16    1
    25    21     7    1
    26    16    39    1
    27    15    38    1
    28     5    19    1
    29     5     2    1
    30     7    22    1
    31     7     4    1
    32    30    12    1
    33     2     4    1
    34     2    17    1
    35     2     3    1
    36     4    18    1
    37     4     3    1
    38    12    29    1
    39    12     3    1
    40    12    28    1
    41     3    13    1
    42    13    32    1
    43    13    33    1
    44    13    31    1
@<TRIPOS>MOLECULE
11996452_6_run_5.pdb
 42 44 0 0 0
SMALL
GASTEIGER

@<TRIPOS>ATOM
      1    O      -66.5390  -88.7930   -8.9290 O.3     2  LIG2       -0.3886
      2    C      -70.7450  -89.2500   -7.3630 C.3     2  LIG2       -0.0289
      3    C      -71.7400  -88.2920   -6.6920 C.3     2  LIG2       -0.0284
      4    C      -70.2520  -88.0070   -6.6180 C.3     2  LIG2       -0.0319
      5    C      -70.3820  -89.4320   -8.8760 C.3     2  LIG2       -0.0294
      6    C      -68.8590  -89.5190   -9.2220 C.3     2  LIG2       -0.0090
      7    C      -69.5110  -86.9330   -7.4410 C.3     2  LIG2       -0.0468
      8    C      -71.0690  -88.5880   -9.9920 C.3     2  LIG2       -0.0404
      9    C      -67.8050  -88.8100   -8.2860 C.3     2  LIG2        0.0664
     10    C      -68.8070  -89.1520  -10.7230 C.3     2  LIG2       -0.0471
     11    C      -68.0850  -87.3260   -7.8840 C.3     2  LIG2       -0.0237
     12    C      -72.6760  -87.2960   -7.4170 C.3     2  LIG2       -0.0593
     13    C      -72.4010  -88.8310   -5.4070 C.3     2  LIG2       -0.0593
     14    C      -69.9540  -88.1790  -10.9650 C.3     2  LIG2       -0.0498
     15    C      -72.2520  -89.2990  -10.6780 C.3     2  LIG2       -0.0621
     16    C      -67.4880  -89.6680   -7.0290 C.3     2  LIG2       -0.0358
     17    H      -70.5910  -90.2000   -6.8480 H       2  LIG2        0.0312
     18    H      -69.7980  -88.1260   -5.6330 H       2  LIG2        0.0309
     19    H      -70.7360  -90.4470   -9.0690 H       2  LIG2        0.0310
     20    H      -68.5930  -90.5780   -9.1830 H       2  LIG2        0.0331
     21    H      -70.0630  -86.6500   -8.3300 H       2  LIG2        0.0269
     22    H      -69.4570  -86.0170   -6.8510 H       2  LIG2        0.0269
     23    H      -71.4600  -87.6590   -9.6120 H       2  LIG2        0.0301
     24    H      -67.8630  -88.7110  -11.0430 H       2  LIG2        0.0269
     25    H      -68.9490  -90.0480  -11.3290 H       2  LIG2        0.0269
     26    H      -67.8360  -86.6730   -8.7240 H       2  LIG2        0.0293
     27    H      -67.3990  -87.0390   -7.0850 H       2  LIG2        0.0293
     28    H      -73.2390  -86.7040   -6.6950 H       2  LIG2        0.0235
     29    H      -73.4040  -87.8250   -8.0310 H       2  LIG2        0.0235
     30    H      -72.1760  -86.5570   -8.0360 H       2  LIG2        0.0235
     31    H      -72.6810  -88.0180   -4.7360 H       2  LIG2        0.0235
     32    H      -71.7390  -89.4920   -4.8460 H       2  LIG2        0.0235
     33    H      -73.3020  -89.3980   -5.6420 H       2  LIG2        0.0235
     34    H      -70.2730  -88.2010  -12.0080 H       2  LIG2        0.0268
     35    H      -69.6270  -87.1590  -10.7560 H       2  LIG2        0.0268
     36    H      -71.9330  -90.2150  -11.1790 H       2  LIG2        0.0233
     37    H      -72.7160  -88.6580  -11.4290 H       2  LIG2        0.0233
     38    H      -73.0220  -89.5670   -9.9550 H       2  LIG2        0.0233
     39    H      -68.3440  -89.8150   -6.3770 H       2  LIG2        0.0257
     40    H      -66.7050  -89.2200   -6.4150 H       2  LIG2        0.0257
     41    H      -67.1400  -90.6660   -7.3020 H       2  LIG2        0.0257
     42    H      -65.8970  -88.4110   -8.3250 H       2  LIG2        0.2102
@<TRIPOS>BOND
     1    34    14    1
     2    37    15    1
     3    25    10    1
     4    36    15    1
     5    24    10    1
     6    14    35    1
     7    14    10    1
     8    14     8    1
     9    10     6    1
    10    15     8    1
    11    15    38    1
    12     8    23    1
    13     8     5    1
    14     6    20    1
    15     6     5    1
    16     6     9    1
    17    19     5    1
    18     1    42    1
    19     1     9    1
    20     5     2    1
    21    26    11    1
    22    21     7    1
    23     9    11    1
    24     9    16    1
    25    30    12    1
    26    29    12    1
    27    11     7    1
    28    11    27    1
    29     7    22    1
    30     7     4    1
    31    12    28    1
    32    12     3    1
    33     2    17    1
    34     2     3    1
    35     2     4    1
    36    41    16    1
    37    16    40    1
    38    16    39    1
    39     3     4    1
    40     3    13    1
    41     4    18    1
    42    33    13    1
    43    13    32    1
    44    13    31    1
@<TRIPOS>MOLECULE
11996452_6_run_9.pdb
 42 44 0 0 0
SMALL
GASTEIGER

@<TRIPOS>ATOM
      1    O      -72.5860  -86.1720   -6.9040 O.3     2  LIG2       -0.3886
      2    C      -68.4150  -87.6420   -6.0090 C.3     2  LIG2       -0.0289
      3    C      -67.8540  -88.9010   -5.3320 C.3     2  LIG2       -0.0284
      4    C      -69.2630  -88.4400   -5.0150 C.3     2  LIG2       -0.0319
      5    C      -68.9410  -87.4300   -7.4690 C.3     2  LIG2       -0.0294
      6    C      -70.2940  -86.6590   -7.6180 C.3     2  LIG2       -0.0090
      7    C      -70.5540  -89.0950   -5.5490 C.3     2  LIG2       -0.0468
      8    C      -68.9410  -88.5830   -8.5180 C.3     2  LIG2       -0.0404
      9    C      -71.3520  -86.7070   -6.4480 C.3     2  LIG2        0.0664
     10    C      -70.7960  -87.0750   -9.0200 C.3     2  LIG2       -0.0471
     11    C      -71.7030  -88.1100   -5.8540 C.3     2  LIG2       -0.0237
     12    C      -67.6310  -90.2750   -6.0080 C.3     2  LIG2       -0.0593
     13    C      -66.7860  -88.6390   -4.2510 C.3     2  LIG2       -0.0593
     14    C      -70.2850  -88.4900   -9.2540 C.3     2  LIG2       -0.0498
     15    C      -67.7220  -88.5740   -9.4610 C.3     2  LIG2       -0.0621
     16    C      -70.9960  -85.7050   -5.3140 C.3     2  LIG2       -0.0358
     17    H      -68.0200  -86.6950   -5.6380 H       2  LIG2        0.0312
     18    H      -69.4140  -88.0430   -4.0100 H       2  LIG2        0.0309
     19    H      -68.2110  -86.7220   -7.8680 H       2  LIG2        0.0310
     20    H      -70.0390  -85.6010   -7.7140 H       2  LIG2        0.0331
     21    H      -70.3740  -89.6750   -6.4470 H       2  LIG2        0.0269
     22    H      -70.9010  -89.8260   -4.8180 H       2  LIG2        0.0269
     23    H      -68.9480  -89.5540   -8.0500 H       2  LIG2        0.0301
     24    H      -71.8790  -87.0390   -9.1360 H       2  LIG2        0.0269
     25    H      -70.3840  -86.4040   -9.7750 H       2  LIG2        0.0269
     26    H      -72.3770  -88.6310   -6.5380 H       2  LIG2        0.0293
     27    H      -72.2760  -87.9740   -4.9350 H       2  LIG2        0.0293
     28    H      -67.2680  -91.0040   -5.2820 H       2  LIG2        0.0235
     29    H      -66.8760  -90.2050   -6.7900 H       2  LIG2        0.0235
     30    H      -68.5200  -90.7350   -6.4270 H       2  LIG2        0.0235
     31    H      -66.7800  -89.4330   -3.5020 H       2  LIG2        0.0235
     32    H      -66.9540  -87.7020   -3.7200 H       2  LIG2        0.0235
     33    H      -65.7900  -88.5880   -4.6920 H       2  LIG2        0.0235
     34    H      -70.1990  -88.7040  -10.3210 H       2  LIG2        0.0268
     35    H      -70.9920  -89.2130   -8.8430 H       2  LIG2        0.0268
     36    H      -67.6820  -87.6590  -10.0540 H       2  LIG2        0.0233
     37    H      -67.7540  -89.4150  -10.1540 H       2  LIG2        0.0233
     38    H      -66.7910  -88.6480   -8.8990 H       2  LIG2        0.0233
     39    H      -70.0590  -85.9300   -4.8140 H       2  LIG2        0.0257
     40    H      -71.7610  -85.6790   -4.5360 H       2  LIG2        0.0257
     41    H      -70.9000  -84.6870   -5.6940 H       2  LIG2        0.0257
     42    H      -72.4020  -85.3890   -7.4290 H       2  LIG2        0.2102
@<TRIPOS>BOND
     1    34    14    1
     2    37    15    1
     3    36    15    1
     4    25    10    1
     5    15    38    1
     6    15     8    1
     7    14    10    1
     8    14    35    1
     9    14     8    1
    10    24    10    1
    11    10     6    1
    12     8    23    1
    13     8     5    1
    14    19     5    1
    15    20     6    1
    16     6     5    1
    17     6     9    1
    18     5     2    1
    19    42     1    1
    20     1     9    1
    21    29    12    1
    22    26    11    1
    23     9    11    1
    24     9    16    1
    25    21     7    1
    26    30    12    1
    27     2    17    1
    28     2     3    1
    29     2     4    1
    30    12     3    1
    31    12    28    1
    32    11     7    1
    33    11    27    1
    34    41    16    1
    35     7     4    1
    36     7    22    1
    37     3     4    1
    38     3    13    1
    39    16    39    1
    40    16    40    1
    41     4    18    1
    42    33    13    1
    43    13    32    1
    44    13    31    1
@<TRIPOS>MOLECULE
11996452_6_run_2.pdb
 42 44 0 0 0
SMALL
GASTEIGER

@<TRIPOS>ATOM
      1    O      -59.5250  -77.4100  -13.4620 O.3     2  LIG2       -0.3886
      2    C      -62.9710  -79.9860  -14.8190 C.3     2  LIG2       -0.0289
      3    C      -63.3550  -81.4550  -14.5880 C.3     2  LIG2       -0.0284
      4    C      -61.9060  -81.0270  -14.4590 C.3     2  LIG2       -0.0319
      5    C      -63.1630  -78.7350  -13.8970 C.3     2  LIG2       -0.0294
      6    C      -61.9280  -77.7870  -13.7400 C.3     2  LIG2       -0.0090
      7    C      -61.1510  -80.8370  -13.1280 C.3     2  LIG2       -0.0468
      8    C      -63.8520  -78.8410  -12.5030 C.3     2  LIG2       -0.0404
      9    C      -60.4720  -78.3710  -13.9040 C.3     2  LIG2        0.0664
     10    C      -62.2220  -77.0230  -12.4290 C.3     2  LIG2       -0.0471
     11    C      -60.1290  -79.6790  -13.1200 C.3     2  LIG2       -0.0237
     12    C      -64.1010  -82.0180  -13.3550 C.3     2  LIG2       -0.0593
     13    C      -63.7280  -82.2400  -15.8620 C.3     2  LIG2       -0.0593
     14    C      -63.0170  -77.9760  -11.5480 C.3     2  LIG2       -0.0498
     15    C      -65.3490  -78.4730  -12.5140 C.3     2  LIG2       -0.0621
     16    C      -60.0760  -78.5100  -15.4010 C.3     2  LIG2       -0.0358
     17    H      -62.9760  -79.6590  -15.8610 H       2  LIG2        0.0312
     18    H      -61.2360  -81.3900  -15.2400 H       2  LIG2        0.0309
     19    H      -63.8610  -78.1330  -14.4820 H       2  LIG2        0.0310
     20    H      -62.0130  -77.0360  -14.5280 H       2  LIG2        0.0331
     21    H      -61.8280  -80.6820  -12.2950 H       2  LIG2        0.0269
     22    H      -60.6330  -81.7670  -12.8860 H       2  LIG2        0.0269
     23    H      -63.7930  -79.8380  -12.0980 H       2  LIG2        0.0301
     24    H      -61.3320  -76.6750  -11.9040 H       2  LIG2        0.0269
     25    H      -62.8180  -76.1340  -12.6440 H       2  LIG2        0.0269
     26    H      -59.9550  -79.4340  -12.0700 H       2  LIG2        0.0293
     27    H      -59.1790  -80.0740  -13.4830 H       2  LIG2        0.0293
     28    H      -64.1990  -83.1010  -13.4290 H       2  LIG2        0.0235
     29    H      -65.1090  -81.6110  -13.2930 H       2  LIG2        0.0235
     30    H      -63.6060  -81.8590  -12.4020 H       2  LIG2        0.0235
     31    H      -63.5180  -83.3040  -15.7460 H       2  LIG2        0.0235
     32    H      -63.1730  -81.9000  -16.7370 H       2  LIG2        0.0235
     33    H      -64.7890  -82.1310  -16.0900 H       2  LIG2        0.0235
     34    H      -63.6290  -77.4280  -10.8290 H       2  LIG2        0.0268
     35    H      -62.3370  -78.6030  -10.9690 H       2  LIG2        0.0268
     36    H      -65.5050  -77.4380  -12.8230 H       2  LIG2        0.0233
     37    H      -65.7920  -78.5920  -11.5240 H       2  LIG2        0.0233
     38    H      -65.9060  -79.1130  -13.1990 H       2  LIG2        0.0233
     39    H      -60.6930  -79.2160  -15.9490 H       2  LIG2        0.0257
     40    H      -59.0440  -78.8430  -15.5220 H       2  LIG2        0.0257
     41    H      -60.1630  -77.5590  -15.9290 H       2  LIG2        0.0257
     42    H      -59.5280  -77.4000  -12.5020 H       2  LIG2        0.2102
@<TRIPOS>BOND
     1    32    13    1
     2    33    13    1
     3    39    16    1
     4    41    16    1
     5    13    31    1
     6    13     3    1
     7    17     2    1
     8    40    16    1
     9    16     9    1
    10    18     4    1
    11     2     3    1
    12     2     4    1
    13     2     5    1
    14     3     4    1
    15     3    12    1
    16    20     6    1
    17    19     5    1
    18     4     7    1
    19     9     6    1
    20     9     1    1
    21     9    11    1
    22     5     6    1
    23     5     8    1
    24     6    10    1
    25    27    11    1
    26     1    42    1
    27    28    12    1
    28    12    29    1
    29    12    30    1
    30    38    15    1
    31     7    11    1
    32     7    22    1
    33     7    21    1
    34    11    26    1
    35    36    15    1
    36    25    10    1
    37    15     8    1
    38    15    37    1
    39     8    23    1
    40     8    14    1
    41    10    24    1
    42    10    14    1
    43    14    35    1
    44    14    34    1
@<TRIPOS>MOLECULE
11996452_6_run_20.pdb
 42 44 0 0 0
SMALL
GASTEIGER

@<TRIPOS>ATOM
      1    O      -71.7580  -88.9090  -12.1790 O.3     2  LIG2       -0.3886
      2    C      -69.6700  -90.4350   -8.4820 C.3     2  LIG2       -0.0289
      3    C      -68.3300  -90.1080   -7.8070 C.3     2  LIG2       -0.0284
      4    C      -68.5130  -89.8360   -9.2870 C.3     2  LIG2       -0.0319
      5    C      -71.0390  -89.6770   -8.4270 C.3     2  LIG2       -0.0294
      6    C      -71.7710  -89.4580   -9.7920 C.3     2  LIG2       -0.0090
      7    C      -68.7310  -88.4430   -9.9140 C.3     2  LIG2       -0.0468
      8    C      -71.2270  -88.3810   -7.5810 C.3     2  LIG2       -0.0404
      9    C      -70.9280  -89.3710  -11.1230 C.3     2  LIG2        0.0664
     10    C      -72.7310  -88.2800   -9.5050 C.3     2  LIG2       -0.0471
     11    C      -69.6870  -88.4200  -11.1270 C.3     2  LIG2       -0.0237
     12    C      -68.0610  -88.9320   -6.8380 C.3     2  LIG2       -0.0593
     13    C      -67.4710  -91.3340   -7.4350 C.3     2  LIG2       -0.0593
     14    C      -72.0450  -87.4180   -8.4540 C.3     2  LIG2       -0.0498
     15    C      -71.8440  -88.6240   -6.1900 C.3     2  LIG2       -0.0621
     16    C      -70.5390  -90.7810  -11.6470 C.3     2  LIG2       -0.0358
     17    H      -69.8620  -91.4960   -8.6520 H       2  LIG2        0.0312
     18    H      -67.9450  -90.4820   -9.9590 H       2  LIG2        0.0309
     19    H      -71.6760  -90.4060   -7.9220 H       2  LIG2        0.0310
     20    H      -72.4230  -90.3220   -9.9370 H       2  LIG2        0.0331
     21    H      -69.1030  -87.7260   -9.1910 H       2  LIG2        0.0269
     22    H      -67.7630  -88.0440  -10.2200 H       2  LIG2        0.0269
     23    H      -70.2930  -87.8730   -7.4080 H       2  LIG2        0.0301
     24    H      -72.9800  -87.6820  -10.3810 H       2  LIG2        0.0269
     25    H      -73.6750  -88.6600   -9.1120 H       2  LIG2        0.0269
     26    H      -70.0260  -87.3870  -11.2270 H       2  LIG2        0.0293
     27    H      -69.0920  -88.6150  -12.0210 H       2  LIG2        0.0293
     28    H      -67.0100  -88.9080   -6.5480 H       2  LIG2        0.0235
     29    H      -68.6410  -89.0430   -5.9230 H       2  LIG2        0.0235
     30    H      -68.2480  -87.9440   -7.2460 H       2  LIG2        0.0235
     31    H      -66.4080  -91.0840   -7.4290 H       2  LIG2        0.0235
     32    H      -67.5990  -92.1590   -8.1370 H       2  LIG2        0.0235
     33    H      -67.7330  -91.7070   -6.4450 H       2  LIG2        0.0235
     34    H      -72.7750  -86.8440   -7.8800 H       2  LIG2        0.0268
     35    H      -71.3860  -86.6950   -8.9370 H       2  LIG2        0.0268
     36    H      -72.8440  -89.0540   -6.2650 H       2  LIG2        0.0233
     37    H      -71.9280  -87.6930   -5.6270 H       2  LIG2        0.0233
     38    H      -71.2310  -89.3080   -5.6020 H       2  LIG2        0.0233
     39    H      -69.8880  -91.3310  -10.9740 H       2  LIG2        0.0257
     40    H      -70.0200  -90.7330  -12.6060 H       2  LIG2        0.0257
     41    H      -71.4190  -91.4100  -11.7980 H       2  LIG2        0.0257
     42    H      -71.8490  -87.9560  -12.0980 H       2  LIG2        0.2102
@<TRIPOS>BOND
     1    40    16    1
     2     1    42    1
     3     1     9    1
     4    27    11    1
     5    41    16    1
     6    16     9    1
     7    16    39    1
     8    26    11    1
     9    11     9    1
    10    11     7    1
    11     9     6    1
    12    24    10    1
    13    22     7    1
    14    18     4    1
    15    20     6    1
    16     7     4    1
    17     7    21    1
    18     6    10    1
    19     6     5    1
    20    10    25    1
    21    10    14    1
    22     4     2    1
    23     4     3    1
    24    35    14    1
    25    17     2    1
    26     2     5    1
    27     2     3    1
    28    14    34    1
    29    14     8    1
    30     5    19    1
    31     5     8    1
    32    32    13    1
    33     3    13    1
    34     3    12    1
    35     8    23    1
    36     8    15    1
    37    13    31    1
    38    13    33    1
    39    30    12    1
    40    12    28    1
    41    12    29    1
    42    36    15    1
    43    15    37    1
    44    15    38    1
@<TRIPOS>MOLECULE
11996452_6_run_19.pdb
 42 44 0 0 0
SMALL
GASTEIGER

@<TRIPOS>ATOM
      1    O      -71.4390  -88.9510  -12.1790 O.3     2  LIG2       -0.3886
      2    C      -71.5680  -88.9420   -7.6690 C.3     2  LIG2       -0.0289
      3    C      -71.7220  -90.0410   -6.6080 C.3     2  LIG2       -0.0284
      4    C      -72.2440  -90.2730   -8.0130 C.3     2  LIG2       -0.0319
      5    C      -70.3060  -88.4910   -8.4800 C.3     2  LIG2       -0.0294
      6    C      -70.5010  -88.2830  -10.0180 C.3     2  LIG2       -0.0090
      7    C      -71.5650  -91.1590   -9.0780 C.3     2  LIG2       -0.0468
      8    C      -68.9140  -89.1600   -8.2710 C.3     2  LIG2       -0.0404
      9    C      -71.6200  -89.0960  -10.7780 C.3     2  LIG2        0.0664
     10    C      -69.0660  -88.3880  -10.5830 C.3     2  LIG2       -0.0471
     11    C      -71.6830  -90.6380  -10.5270 C.3     2  LIG2       -0.0237
     12    C      -70.5890  -90.9370   -6.0540 C.3     2  LIG2       -0.0593
     13    C      -72.7790  -89.7550   -5.5220 C.3     2  LIG2       -0.0593
     14    C      -68.3180  -89.3510   -9.6730 C.3     2  LIG2       -0.0498
     15    C      -67.9860  -88.3930   -7.3090 C.3     2  LIG2       -0.0621
     16    C      -73.0220  -88.4520  -10.5920 C.3     2  LIG2       -0.0358
     17    H      -72.2380  -88.0880   -7.5590 H       2  LIG2        0.0312
     18    H      -73.3300  -90.3040   -8.1130 H       2  LIG2        0.0309
     19    H      -70.1580  -87.4730   -8.1120 H       2  LIG2        0.0310
     20    H      -70.7820  -87.2370  -10.1550 H       2  LIG2        0.0331
     21    H      -70.5120  -91.3100   -8.8700 H       2  LIG2        0.0269
     22    H      -71.9980  -92.1590   -9.0260 H       2  LIG2        0.0269
     23    H      -69.0010  -90.1560   -7.8680 H       2  LIG2        0.0301
     24    H      -69.0170  -88.7280  -11.6170 H       2  LIG2        0.0269
     25    H      -68.5870  -87.4080  -10.5590 H       2  LIG2        0.0269
     26    H      -70.8880  -91.1270  -11.0920 H       2  LIG2        0.0293
     27    H      -72.6130  -91.0280  -10.9440 H       2  LIG2        0.0293
     28    H      -70.9880  -91.6660   -5.3470 H       2  LIG2        0.0235
     29    H      -69.8530  -90.3420   -5.5140 H       2  LIG2        0.0235
     30    H      -70.0700  -91.5390   -6.7930 H       2  LIG2        0.0235
     31    H      -73.1920  -90.6820   -5.1190 H       2  LIG2        0.0235
     32    H      -73.6180  -89.1720   -5.9020 H       2  LIG2        0.0235
     33    H      -72.3440  -89.1950   -4.6940 H       2  LIG2        0.0235
     34    H      -67.2430  -89.1660   -9.7040 H       2  LIG2        0.0268
     35    H      -68.4710  -90.3780  -10.0110 H       2  LIG2        0.0268
     36    H      -67.7600  -87.3920   -7.6830 H       2  LIG2        0.0233
     37    H      -67.0380  -88.9150   -7.1730 H       2  LIG2        0.0233
     38    H      -68.4440  -88.2840   -6.3250 H       2  LIG2        0.0233
     39    H      -73.3670  -88.4540   -9.5620 H       2  LIG2        0.0257
     40    H      -73.7890  -88.9660  -11.1750 H       2  LIG2        0.0257
     41    H      -73.0300  -87.4090  -10.9120 H       2  LIG2        0.0257
     42    H      -71.2510  -88.0290  -12.3670 H       2  LIG2        0.2102
@<TRIPOS>BOND
     1    42     1    1
     2     1     9    1
     3    24    10    1
     4    40    16    1
     5    26    11    1
     6    27    11    1
     7    41    16    1
     8     9    16    1
     9     9    11    1
    10     9     6    1
    11    16    39    1
    12    10    25    1
    13    10     6    1
    14    10    14    1
    15    11     7    1
    16    20     6    1
    17     6     5    1
    18    35    14    1
    19    34    14    1
    20    14     8    1
    21     7    22    1
    22     7    21    1
    23     7     4    1
    24     5     8    1
    25     5    19    1
    26     5     2    1
    27     8    23    1
    28     8    15    1
    29    18     4    1
    30     4     2    1
    31     4     3    1
    32    36    15    1
    33     2    17    1
    34     2     3    1
    35    15    37    1
    36    15    38    1
    37    30    12    1
    38     3    12    1
    39     3    13    1
    40    12    29    1
    41    12    28    1
    42    32    13    1
    43    13    31    1
    44    13    33    1
