@<TRIPOS>MOLECULE
11996452_2_run_12.pdb
 42 44 0 0 0
SMALL
GASTEIGER

@<TRIPOS>ATOM
      1    O      -65.2460  -78.1720  -11.8070 O.3     2  LIG2       -0.3886
      2    C      -61.8330  -80.7130  -13.5280 C.3     2  LIG2       -0.0289
      3    C      -62.5150  -81.5200  -14.6190 C.3     2  LIG2       -0.0284
      4    C      -62.9820  -81.6860  -13.1850 C.3     2  LIG2       -0.0319
      5    C      -61.9150  -79.1650  -13.3310 C.3     2  LIG2       -0.0294
      6    C      -63.2600  -78.4440  -13.0660 C.3     2  LIG2       -0.0090
      7    C      -64.3350  -81.1670  -12.6520 C.3     2  LIG2       -0.0468
      8    C      -61.2490  -78.3750  -14.4810 C.3     2  LIG2       -0.0404
      9    C      -63.9510  -78.7400  -11.6890 C.3     2  LIG2        0.0664
     10    C      -62.9230  -76.9650  -13.3450 C.3     2  LIG2       -0.0471
     11    C      -64.1770  -80.2560  -11.4190 C.3     2  LIG2       -0.0237
     12    C      -63.4250  -80.8920  -15.6990 C.3     2  LIG2       -0.0593
     13    C      -61.6880  -82.6790  -15.2100 C.3     2  LIG2       -0.0593
     14    C      -61.8820  -76.9710  -14.4690 C.3     2  LIG2       -0.0498
     15    C      -59.7100  -78.3600  -14.4180 C.3     2  LIG2       -0.0621
     16    C      -63.2770  -78.0930  -10.4550 C.3     2  LIG2       -0.0358
     17    H      -60.8290  -81.0470  -13.2650 H       2  LIG2        0.0312
     18    H      -62.7250  -82.6390  -12.7180 H       2  LIG2        0.0309
     19    H      -61.3220  -78.9670  -12.4360 H       2  LIG2        0.0310
     20    H      -63.9610  -78.7150  -13.8490 H       2  LIG2        0.0331
     21    H      -64.9500  -80.6970  -13.4160 H       2  LIG2        0.0269
     22    H      -64.9090  -82.0410  -12.3400 H       2  LIG2        0.0269
     23    H      -61.5260  -78.8370  -15.4290 H       2  LIG2        0.0301
     24    H      -63.8090  -76.3940  -13.6290 H       2  LIG2        0.0269
     25    H      -62.4940  -76.4770  -12.4720 H       2  LIG2        0.0269
     26    H      -65.0390  -80.3920  -10.7630 H       2  LIG2        0.0293
     27    H      -63.3410  -80.6440  -10.8340 H       2  LIG2        0.0293
     28    H      -64.0960  -81.6450  -16.1120 H       2  LIG2        0.0235
     29    H      -62.8310  -80.5010  -16.5250 H       2  LIG2        0.0235
     30    H      -64.0560  -80.0830  -15.3570 H       2  LIG2        0.0235
     31    H      -62.3350  -83.4550  -15.6210 H       2  LIG2        0.0235
     32    H      -61.0490  -83.1530  -14.4650 H       2  LIG2        0.0235
     33    H      -61.0390  -82.3250  -16.0130 H       2  LIG2        0.0235
     34    H      -61.1470  -76.1790  -14.3210 H       2  LIG2        0.0268
     35    H      -62.3660  -76.7730  -15.4260 H       2  LIG2        0.0268
     36    H      -59.3530  -77.8930  -13.4990 H       2  LIG2        0.0233
     37    H      -59.2890  -77.8070  -15.2570 H       2  LIG2        0.0233
     38    H      -59.3030  -79.3720  -14.4570 H       2  LIG2        0.0233
     39    H      -62.2390  -78.4090  -10.3530 H       2  LIG2        0.0257
     40    H      -63.7910  -78.3700   -9.5330 H       2  LIG2        0.0257
     41    H      -63.2890  -77.0040  -10.4950 H       2  LIG2        0.0257
     42    H      -65.1540  -77.2190  -11.8780 H       2  LIG2        0.2102
@<TRIPOS>BOND
     1    29    12    1
     2    28    12    1
     3    33    13    1
     4    12    30    1
     5    12     3    1
     6    31    13    1
     7    23     8    1
     8    35    14    1
     9    37    15    1
    10    13     3    1
    11    13    32    1
    12     3     2    1
    13     3     4    1
    14     8    14    1
    15     8    15    1
    16     8     5    1
    17    14    34    1
    18    14    10    1
    19    38    15    1
    20    15    36    1
    21    20     6    1
    22    24    10    1
    23     2     5    1
    24     2    17    1
    25     2     4    1
    26    21     7    1
    27    10     6    1
    28    10    25    1
    29     5     6    1
    30     5    19    1
    31     4    18    1
    32     4     7    1
    33     6     9    1
    34     7    22    1
    35     7    11    1
    36    42     1    1
    37     1     9    1
    38     9    11    1
    39     9    16    1
    40    11    27    1
    41    11    26    1
    42    41    16    1
    43    16    39    1
    44    16    40    1
@<TRIPOS>MOLECULE
11996452_2_run_3.pdb
 42 44 0 0 0
SMALL
GASTEIGER

@<TRIPOS>ATOM
      1    O      -71.4630  -89.0070  -12.1670 O.3     2  LIG2       -0.3886
      2    C      -69.2790  -88.9190   -8.1310 C.3     2  LIG2       -0.0289
      3    C      -68.8680  -87.4630   -7.9890 C.3     2  LIG2       -0.0284
      4    C      -68.3340  -88.2630   -9.1620 C.3     2  LIG2       -0.0319
      5    C      -70.7080  -89.4500   -8.4740 C.3     2  LIG2       -0.0294
      6    C      -71.4190  -89.0870   -9.8020 C.3     2  LIG2       -0.0090
      7    C      -68.7760  -88.0490  -10.6260 C.3     2  LIG2       -0.0468
      8    C      -71.7440  -89.1550   -7.3640 C.3     2  LIG2       -0.0404
      9    C      -70.7930  -89.6800  -11.1120 C.3     2  LIG2        0.0664
     10    C      -72.8870  -89.4680   -9.5260 C.3     2  LIG2       -0.0471
     11    C      -69.2830  -89.3440  -11.2890 C.3     2  LIG2       -0.0237
     12    C      -69.8420  -86.2810   -8.1920 C.3     2  LIG2       -0.0593
     13    C      -67.8700  -87.1580   -6.8550 C.3     2  LIG2       -0.0593
     14    C      -73.1280  -89.1880   -8.0400 C.3     2  LIG2       -0.0498
     15    C      -71.6280  -90.0830   -6.1410 C.3     2  LIG2       -0.0621
     16    C      -71.0110  -91.1970  -11.3260 C.3     2  LIG2       -0.0358
     17    H      -68.8120  -89.6030   -7.4220 H       2  LIG2        0.0312
     18    H      -67.2720  -88.5100   -9.1140 H       2  LIG2        0.0309
     19    H      -70.6000  -90.5350   -8.5140 H       2  LIG2        0.0310
     20    H      -71.4340  -88.0070   -9.9060 H       2  LIG2        0.0331
     21    H      -69.4870  -87.2350  -10.7490 H       2  LIG2        0.0269
     22    H      -67.8940  -87.7240  -11.1790 H       2  LIG2        0.0269
     23    H      -71.5920  -88.1350   -7.0080 H       2  LIG2        0.0301
     24    H      -73.5780  -88.9010  -10.1520 H       2  LIG2        0.0269
     25    H      -73.0740  -90.5230   -9.7190 H       2  LIG2        0.0269
     26    H      -69.0280  -89.3250  -12.3500 H       2  LIG2        0.0293
     27    H      -68.6850  -90.1670  -10.8920 H       2  LIG2        0.0293
     28    H      -69.2890  -85.3720   -8.4290 H       2  LIG2        0.0235
     29    H      -70.4090  -86.0860   -7.2820 H       2  LIG2        0.0235
     30    H      -70.5640  -86.4090   -8.9880 H       2  LIG2        0.0235
     31    H      -67.2920  -86.2590   -7.0710 H       2  LIG2        0.0235
     32    H      -67.1570  -87.9690   -6.7010 H       2  LIG2        0.0235
     33    H      -68.3900  -87.0030   -5.9080 H       2  LIG2        0.0235
     34    H      -73.7890  -89.9390   -7.6050 H       2  LIG2        0.0268
     35    H      -73.6250  -88.2250   -7.9170 H       2  LIG2        0.0268
     36    H      -71.7870  -91.1260   -6.4160 H       2  LIG2        0.0233
     37    H      -72.3660  -89.8240   -5.3820 H       2  LIG2        0.0233
     38    H      -70.6430  -90.0070   -5.6790 H       2  LIG2        0.0233
     39    H      -70.6050  -91.7810  -10.4990 H       2  LIG2        0.0257
     40    H      -70.5200  -91.5430  -12.2360 H       2  LIG2        0.0257
     41    H      -72.0640  -91.4580  -11.4290 H       2  LIG2        0.0257
     42    H      -71.2930  -88.0660  -12.0840 H       2  LIG2        0.2102
@<TRIPOS>BOND
     1    26    11    1
     2    40    16    1
     3     1    42    1
     4     1     9    1
     5    41    16    1
     6    16     9    1
     7    16    39    1
     8    11     9    1
     9    11    27    1
    10    11     7    1
    11    22     7    1
    12     9     6    1
    13    21     7    1
    14     7     4    1
    15    24    10    1
    16    20     6    1
    17     6    10    1
    18     6     5    1
    19    25    10    1
    20    10    14    1
    21     4    18    1
    22     4     2    1
    23     4     3    1
    24    30    12    1
    25    19     5    1
    26     5     2    1
    27     5     8    1
    28    28    12    1
    29    12     3    1
    30    12    29    1
    31     2     3    1
    32     2    17    1
    33    14    35    1
    34    14    34    1
    35    14     8    1
    36     3    13    1
    37     8    23    1
    38     8    15    1
    39    31    13    1
    40    13    32    1
    41    13    33    1
    42    36    15    1
    43    15    38    1
    44    15    37    1
@<TRIPOS>MOLECULE
11996452_2_run_22.pdb
 42 44 0 0 0
SMALL
GASTEIGER

@<TRIPOS>ATOM
      1    O      -67.3340  -87.4090   -9.8020 O.3     2  LIG2       -0.3886
      2    C      -69.4230  -89.9710   -6.6180 C.3     2  LIG2       -0.0289
      3    C      -68.3060  -90.2910   -5.6390 C.3     2  LIG2       -0.0284
      4    C      -68.1770  -90.7610   -7.0760 C.3     2  LIG2       -0.0319
      5    C      -69.8050  -88.5560   -7.1600 C.3     2  LIG2       -0.0294
      6    C      -68.8060  -87.6930   -7.9700 C.3     2  LIG2       -0.0090
      7    C      -67.1830  -90.1620   -8.0950 C.3     2  LIG2       -0.0468
      8    C      -70.3540  -87.6180   -6.0600 C.3     2  LIG2       -0.0404
      9    C      -68.4200  -88.2260   -9.3940 C.3     2  LIG2        0.0664
     10    C      -69.4430  -86.2900   -7.9270 C.3     2  LIG2       -0.0471
     11    C      -67.8730  -89.6830   -9.3870 C.3     2  LIG2       -0.0237
     12    C      -67.3590  -89.2210   -5.0510 C.3     2  LIG2       -0.0593
     13    C      -68.6250  -91.3730   -4.5900 C.3     2  LIG2       -0.0593
     14    C      -70.1370  -86.1790   -6.5660 C.3     2  LIG2       -0.0498
     15    C      -71.8080  -87.9190   -5.6530 C.3     2  LIG2       -0.0621
     16    C      -69.5210  -88.0950  -10.4730 C.3     2  LIG2       -0.0358
     17    H      -70.3350  -90.5530   -6.4840 H       2  LIG2        0.0312
     18    H      -68.2780  -91.8370   -7.2260 H       2  LIG2        0.0309
     19    H      -70.6290  -88.7360   -7.8510 H       2  LIG2        0.0310
     20    H      -67.8880  -87.5920   -7.3990 H       2  LIG2        0.0331
     21    H      -66.5470  -89.3860   -7.6750 H       2  LIG2        0.0269
     22    H      -66.4930  -90.9600   -8.3710 H       2  LIG2        0.0269
     23    H      -69.7400  -87.7320   -5.1650 H       2  LIG2        0.0301
     24    H      -68.6990  -85.5020   -8.0570 H       2  LIG2        0.0269
     25    H      -70.1870  -86.1600   -8.7120 H       2  LIG2        0.0269
     26    H      -67.1940  -89.8300  -10.2290 H       2  LIG2        0.0293
     27    H      -68.6940  -90.3750   -9.5910 H       2  LIG2        0.0293
     28    H      -66.4320  -89.6830   -4.7090 H       2  LIG2        0.0235
     29    H      -67.8140  -88.7360   -4.1870 H       2  LIG2        0.0235
     30    H      -67.0680  -88.4350   -5.7340 H       2  LIG2        0.0235
     31    H      -67.7160  -91.8620   -4.2390 H       2  LIG2        0.0235
     32    H      -69.2780  -92.1530   -4.9840 H       2  LIG2        0.0235
     33    H      -69.1280  -90.9400   -3.7240 H       2  LIG2        0.0235
     34    H      -71.0690  -85.6190   -6.6510 H       2  LIG2        0.0268
     35    H      -69.5040  -85.6300   -5.8680 H       2  LIG2        0.0268
     36    H      -72.4900  -87.8080   -6.4970 H       2  LIG2        0.0233
     37    H      -72.1420  -87.2440   -4.8650 H       2  LIG2        0.0233
     38    H      -71.9100  -88.9380   -5.2750 H       2  LIG2        0.0233
     39    H      -70.4310  -88.6210  -10.1840 H       2  LIG2        0.0257
     40    H      -69.1950  -88.5170  -11.4250 H       2  LIG2        0.0257
     41    H      -69.7890  -87.0580  -10.6750 H       2  LIG2        0.0257
     42    H      -67.6570  -86.5140   -9.9290 H       2  LIG2        0.2102
@<TRIPOS>BOND
     1    40    16    1
     2    41    16    1
     3    16    39    1
     4    16     9    1
     5    26    11    1
     6    42     1    1
     7     1     9    1
     8    27    11    1
     9     9    11    1
    10     9     6    1
    11    11     7    1
    12    25    10    1
    13    22     7    1
    14     7    21    1
    15     7     4    1
    16    24    10    1
    17     6    10    1
    18     6    20    1
    19     6     5    1
    20    10    14    1
    21    19     5    1
    22    18     4    1
    23     5     2    1
    24     5     8    1
    25     4     2    1
    26     4     3    1
    27    34    14    1
    28     2    17    1
    29     2     3    1
    30    14     8    1
    31    14    35    1
    32    36    15    1
    33     8    15    1
    34     8    23    1
    35    30    12    1
    36    15    38    1
    37    15    37    1
    38     3    12    1
    39     3    13    1
    40    12    28    1
    41    12    29    1
    42    32    13    1
    43    13    31    1
    44    13    33    1
@<TRIPOS>MOLECULE
11996452_2_run_3.pdb
 42 44 0 0 0
SMALL
GASTEIGER

@<TRIPOS>ATOM
      1    O      -62.6730  -82.6170  -14.4750 O.3     2  LIG2       -0.3886
      2    C      -63.5870  -78.4260  -12.8390 C.3     2  LIG2       -0.0289
      3    C      -63.3100  -78.5650  -11.3520 C.3     2  LIG2       -0.0284
      4    C      -64.3920  -79.4240  -11.9790 C.3     2  LIG2       -0.0319
      5    C      -62.6340  -78.8510  -14.0040 C.3     2  LIG2       -0.0294
      6    C      -62.1780  -80.3190  -14.1930 C.3     2  LIG2       -0.0090
      7    C      -64.2670  -80.9480  -12.1960 C.3     2  LIG2       -0.0468
      8    C      -61.3370  -78.0120  -14.0570 C.3     2  LIG2       -0.0404
      9    C      -63.2880  -81.3450  -14.6150 C.3     2  LIG2        0.0664
     10    C      -60.9810  -80.1900  -15.1560 C.3     2  LIG2       -0.0471
     11    C      -64.5160  -81.3620  -13.6590 C.3     2  LIG2       -0.0237
     12    C      -62.0140  -79.1830  -10.7820 C.3     2  LIG2       -0.0593
     13    C      -63.7890  -77.3940  -10.4710 C.3     2  LIG2       -0.0593
     14    C      -60.2980  -78.8640  -14.8100 C.3     2  LIG2       -0.0498
     15    C      -61.5300  -76.6040  -14.6500 C.3     2  LIG2       -0.0621
     16    C      -63.7760  -81.2310  -16.0790 C.3     2  LIG2       -0.0358
     17    H      -64.1100  -77.5150  -13.1300 H       2  LIG2        0.0312
     18    H      -65.4150  -79.1590  -11.7070 H       2  LIG2        0.0309
     19    H      -63.1890  -78.6210  -14.9150 H       2  LIG2        0.0310
     20    H      -61.7420  -80.6720  -13.2640 H       2  LIG2        0.0331
     21    H      -63.3340  -81.3640  -11.8200 H       2  LIG2        0.0269
     22    H      -65.0390  -81.4200  -11.5880 H       2  LIG2        0.0269
     23    H      -60.9620  -77.8820  -13.0410 H       2  LIG2        0.0301
     24    H      -60.2890  -81.0290  -15.0580 H       2  LIG2        0.0269
     25    H      -61.3000  -80.1590  -16.1960 H       2  LIG2        0.0269
     26    H      -64.9870  -82.3470  -13.6760 H       2  LIG2        0.0293
     27    H      -65.2880  -80.6980  -14.0560 H       2  LIG2        0.0293
     28    H      -62.1800  -79.5370   -9.7640 H       2  LIG2        0.0235
     29    H      -61.2180  -78.4400  -10.7400 H       2  LIG2        0.0235
     30    H      -61.6240  -80.0280  -11.3340 H       2  LIG2        0.0235
     31    H      -63.9750  -77.7220   -9.4480 H       2  LIG2        0.0235
     32    H      -64.7140  -76.9490  -10.8410 H       2  LIG2        0.0235
     33    H      -63.0410  -76.6000  -10.4380 H       2  LIG2        0.0235
     34    H      -59.9240  -78.3730  -15.7090 H       2  LIG2        0.0268
     35    H      -59.4330  -79.0460  -14.1700 H       2  LIG2        0.0268
     36    H      -61.8890  -76.6500  -15.6790 H       2  LIG2        0.0233
     37    H      -60.5930  -76.0470  -14.6510 H       2  LIG2        0.0233
     38    H      -62.2530  -76.0260  -14.0710 H       2  LIG2        0.0233
     39    H      -64.1770  -80.2400  -16.2920 H       2  LIG2        0.0257
     40    H      -64.5690  -81.9510  -16.2880 H       2  LIG2        0.0257
     41    H      -62.9850  -81.4300  -16.8010 H       2  LIG2        0.0257
     42    H      -61.9880  -82.6980  -15.1430 H       2  LIG2        0.2102
@<TRIPOS>BOND
     1    41    16    1
     2    39    16    1
     3    40    16    1
     4    25    10    1
     5    16     9    1
     6    34    14    1
     7    36    15    1
     8    10    24    1
     9    10    14    1
    10    10     6    1
    11    42     1    1
    12    19     5    1
    13    14    35    1
    14    14     8    1
    15    37    15    1
    16    15    38    1
    17    15     8    1
    18     9     1    1
    19     9     6    1
    20     9    11    1
    21     6     5    1
    22     6    20    1
    23     8     5    1
    24     8    23    1
    25    27    11    1
    26     5     2    1
    27    26    11    1
    28    11     7    1
    29    17     2    1
    30     2     4    1
    31     2     3    1
    32     7     4    1
    33     7    21    1
    34     7    22    1
    35     4    18    1
    36     4     3    1
    37     3    12    1
    38     3    13    1
    39    30    12    1
    40    32    13    1
    41    12    29    1
    42    12    28    1
    43    13    33    1
    44    13    31    1
@<TRIPOS>MOLECULE
11996452_2_run_20.pdb
 42 44 0 0 0
SMALL
GASTEIGER

@<TRIPOS>ATOM
      1    O      -70.2890  -85.4090   -6.7820 O.3     2  LIG2       -0.3886
      2    C      -71.2130  -89.5960   -8.4200 C.3     2  LIG2       -0.0289
      3    C      -72.1430  -89.3160   -9.5880 C.3     2  LIG2       -0.0284
      4    C      -72.5720  -88.8970   -8.1950 C.3     2  LIG2       -0.0319
      5    C      -69.8300  -88.9180   -8.1510 C.3     2  LIG2       -0.0294
      6    C      -69.6970  -87.3910   -7.9320 C.3     2  LIG2       -0.0090
      7    C      -72.6460  -87.4300   -7.7180 C.3     2  LIG2       -0.0468
      8    C      -68.7690  -89.2710   -9.2190 C.3     2  LIG2       -0.0404
      9    C      -70.3270  -86.8180   -6.6150 C.3     2  LIG2        0.0664
     10    C      -68.1860  -87.1440   -8.1170 C.3     2  LIG2       -0.0471
     11    C      -71.8300  -87.1810   -6.4340 C.3     2  LIG2       -0.0237
     12    C      -71.8370  -88.2740  -10.6870 C.3     2  LIG2       -0.0593
     13    C      -72.8550  -90.5450  -10.1850 C.3     2  LIG2       -0.0593
     14    C      -67.7170  -88.1470   -9.1760 C.3     2  LIG2       -0.0498
     15    C      -68.1740  -90.6830   -9.0630 C.3     2  LIG2       -0.0621
     16    C      -69.5590  -87.1460   -5.3130 C.3     2  LIG2       -0.0358
     17    H      -71.1570  -90.6410   -8.1140 H       2  LIG2        0.0312
     18    H      -73.3840  -89.4830   -7.7610 H       2  LIG2        0.0309
     19    H      -69.4830  -89.3570   -7.2140 H       2  LIG2        0.0310
     20    H      -70.1600  -86.8770   -8.7680 H       2  LIG2        0.0331
     21    H      -72.3940  -86.7100   -8.4940 H       2  LIG2        0.0269
     22    H      -73.6910  -87.2250   -7.4850 H       2  LIG2        0.0269
     23    H      -69.2370  -89.2270  -10.2040 H       2  LIG2        0.0301
     24    H      -67.9770  -86.1180   -8.4250 H       2  LIG2        0.0269
     25    H      -67.6320  -87.3210   -7.1970 H       2  LIG2        0.0269
     26    H      -72.3290  -86.4150   -5.8380 H       2  LIG2        0.0293
     27    H      -71.9090  -88.0810   -5.8200 H       2  LIG2        0.0293
     28    H      -72.7580  -87.9590  -11.1770 H       2  LIG2        0.0235
     29    H      -71.1930  -88.7020  -11.4570 H       2  LIG2        0.0235
     30    H      -71.3540  -87.3690  -10.3440 H       2  LIG2        0.0235
     31    H      -73.7890  -90.2610  -10.6710 H       2  LIG2        0.0235
     32    H      -73.1000  -91.2900   -9.4270 H       2  LIG2        0.0235
     33    H      -72.2270  -91.0370  -10.9290 H       2  LIG2        0.0235
     34    H      -66.7170  -88.5160   -8.9450 H       2  LIG2        0.0268
     35    H      -67.6540  -87.6590  -10.1490 H       2  LIG2        0.0268
     36    H      -67.6700  -90.8000   -8.1030 H       2  LIG2        0.0233
     37    H      -67.4460  -90.8890   -9.8480 H       2  LIG2        0.0233
     38    H      -68.9490  -91.4480   -9.1280 H       2  LIG2        0.0233
     39    H      -69.4610  -88.2210   -5.1640 H       2  LIG2        0.0257
     40    H      -70.0730  -86.7450   -4.4380 H       2  LIG2        0.0257
     41    H      -68.5560  -86.7180   -5.2990 H       2  LIG2        0.0257
     42    H      -70.9340  -85.1640   -7.4500 H       2  LIG2        0.2102
@<TRIPOS>BOND
     1    29    12    1
     2    28    12    1
     3    33    13    1
     4    12    30    1
     5    12     3    1
     6    31    13    1
     7    23     8    1
     8    13     3    1
     9    13    32    1
    10    35    14    1
    11    37    15    1
    12     3     2    1
    13     3     4    1
    14     8    14    1
    15     8    15    1
    16     8     5    1
    17    14    34    1
    18    14    10    1
    19    38    15    1
    20    15    36    1
    21    20     6    1
    22    21     7    1
    23    24    10    1
    24     2     4    1
    25     2     5    1
    26     2    17    1
    27     4    18    1
    28     4     7    1
    29     5     6    1
    30     5    19    1
    31    10     6    1
    32    10    25    1
    33     6     9    1
    34     7    22    1
    35     7    11    1
    36    42     1    1
    37     1     9    1
    38     9    11    1
    39     9    16    1
    40    11    26    1
    41    11    27    1
    42    16    41    1
    43    16    39    1
    44    16    40    1
@<TRIPOS>MOLECULE
11996452_2_run_3.pdb
 42 44 0 0 0
SMALL
GASTEIGER

@<TRIPOS>ATOM
      1    O      -67.0390  -88.7440   -6.6630 O.3     2  LIG2       -0.3886
      2    C      -71.0470  -87.5870   -8.5780 C.3     2  LIG2       -0.0289
      3    C      -71.4220  -88.8240   -9.3750 C.3     2  LIG2       -0.0284
      4    C      -70.1390  -88.0930   -9.7200 C.3     2  LIG2       -0.0319
      5    C      -70.6160  -87.5460   -7.0760 C.3     2  LIG2       -0.0294
      6    C      -69.3610  -88.2950   -6.5640 C.3     2  LIG2       -0.0090
      7    C      -68.7260  -88.6450   -9.4310 C.3     2  LIG2       -0.0468
      8    C      -71.7540  -87.9530   -6.1120 C.3     2  LIG2       -0.0404
      9    C      -67.9750  -87.7550   -7.0630 C.3     2  LIG2        0.0664
     10    C      -69.5650  -88.3130   -5.0360 C.3     2  LIG2       -0.0471
     11    C      -67.8620  -87.6670   -8.6130 C.3     2  LIG2       -0.0237
     12    C      -71.4070  -90.2520   -8.7860 C.3     2  LIG2       -0.0593
     13    C      -72.5950  -88.6540  -10.3610 C.3     2  LIG2       -0.0593
     14    C      -71.0760  -88.4200   -4.8100 C.3     2  LIG2       -0.0498
     15    C      -72.8130  -86.8550   -5.8990 C.3     2  LIG2       -0.0621
     16    C      -67.5200  -86.4150   -6.4370 C.3     2  LIG2       -0.0358
     17    H      -71.6390  -86.6980   -8.7970 H       2  LIG2        0.0312
     18    H      -70.1510  -87.5480  -10.6660 H       2  LIG2        0.0309
     19    H      -70.4030  -86.4940   -6.8770 H       2  LIG2        0.0310
     20    H      -69.4320  -89.3370   -6.8600 H       2  LIG2        0.0331
     21    H      -68.7320  -89.6380   -8.9850 H       2  LIG2        0.0269
     22    H      -68.2360  -88.7840  -10.3960 H       2  LIG2        0.0269
     23    H      -72.2710  -88.8190   -6.5270 H       2  LIG2        0.0301
     24    H      -69.0350  -89.1430   -4.5660 H       2  LIG2        0.0269
     25    H      -69.2050  -87.3980   -4.5700 H       2  LIG2        0.0269
     26    H      -66.8180  -87.7740   -8.9160 H       2  LIG2        0.0293
     27    H      -68.1240  -86.6560   -8.9340 H       2  LIG2        0.0293
     28    H      -71.3220  -90.9900   -9.5840 H       2  LIG2        0.0235
     29    H      -72.3340  -90.4600   -8.2520 H       2  LIG2        0.0235
     30    H      -70.5980  -90.4590   -8.0980 H       2  LIG2        0.0235
     31    H      -72.5290  -89.3720  -11.1790 H       2  LIG2        0.0235
     32    H      -72.6200  -87.6590  -10.8070 H       2  LIG2        0.0235
     33    H      -73.5520  -88.8060   -9.8590 H       2  LIG2        0.0235
     34    H      -71.3820  -87.8330   -3.9430 H       2  LIG2        0.0268
     35    H      -71.3490  -89.4550   -4.5990 H       2  LIG2        0.0268
     36    H      -72.3730  -85.9550   -5.4670 H       2  LIG2        0.0233
     37    H      -73.6010  -87.1950   -5.2270 H       2  LIG2        0.0233
     38    H      -73.2870  -86.5740   -6.8420 H       2  LIG2        0.0233
     39    H      -68.2440  -85.6200   -6.6200 H       2  LIG2        0.0257
     40    H      -66.5680  -86.0850   -6.8560 H       2  LIG2        0.0257
     41    H      -67.3710  -86.4850   -5.3600 H       2  LIG2        0.0257
     42    H      -66.1590  -88.4450   -6.9040 H       2  LIG2        0.2102
@<TRIPOS>BOND
     1    31    13    1
     2    32    13    1
     3    18     4    1
     4    22     7    1
     5    13    33    1
     6    13     3    1
     7     4     7    1
     8     4     3    1
     9     4     2    1
    10    28    12    1
    11     7    21    1
    12     7    11    1
    13     3    12    1
    14     3     2    1
    15    27    11    1
    16    26    11    1
    17    17     2    1
    18    12    29    1
    19    12    30    1
    20    11     9    1
    21     2     5    1
    22     5    19    1
    23     5     6    1
    24     5     8    1
    25     9     1    1
    26     9     6    1
    27     9    16    1
    28    42     1    1
    29    20     6    1
    30    40    16    1
    31    38    15    1
    32    39    16    1
    33     6    10    1
    34    23     8    1
    35    16    41    1
    36     8    15    1
    37     8    14    1
    38    15    36    1
    39    15    37    1
    40    10    14    1
    41    10    25    1
    42    10    24    1
    43    14    35    1
    44    14    34    1
@<TRIPOS>MOLECULE
11996452_2_run_23.pdb
 42 44 0 0 0
SMALL
GASTEIGER

@<TRIPOS>ATOM
      1    O      -66.4140  -88.0110   -5.3200 O.3     2  LIG2       -0.3886
      2    C      -70.0650  -88.3070   -8.0860 C.3     2  LIG2       -0.0289
      3    C      -69.4460  -88.4100   -9.4700 C.3     2  LIG2       -0.0284
      4    C      -69.1800  -87.1680   -8.6390 C.3     2  LIG2       -0.0319
      5    C      -69.6940  -89.1700   -6.8370 C.3     2  LIG2       -0.0294
      6    C      -68.2670  -89.1650   -6.2340 C.3     2  LIG2       -0.0090
      7    C      -67.8150  -86.8350   -7.9980 C.3     2  LIG2       -0.0468
      8    C      -70.0600  -90.6620   -7.0070 C.3     2  LIG2       -0.0404
      9    C      -67.8020  -87.8300   -5.5530 C.3     2  LIG2        0.0664
     10    C      -68.2670  -90.4160   -5.3320 C.3     2  LIG2       -0.0471
     11    C      -67.9170  -86.5860   -6.4810 C.3     2  LIG2       -0.0237
     12    C      -68.3180  -89.4040   -9.8250 C.3     2  LIG2       -0.0593
     13    C      -70.4220  -88.2470  -10.6520 C.3     2  LIG2       -0.0593
     14    C      -69.1610  -91.4450   -6.0310 C.3     2  LIG2       -0.0498
     15    C      -71.5610  -90.9590   -6.8390 C.3     2  LIG2       -0.0621
     16    C      -68.4600  -87.5170   -4.1880 C.3     2  LIG2       -0.0358
     17    H      -71.1380  -88.1130   -8.0730 H       2  LIG2        0.0312
     18    H      -69.6710  -86.2590   -8.9880 H       2  LIG2        0.0309
     19    H      -70.3270  -88.7860   -6.0360 H       2  LIG2        0.0310
     20    H      -67.5560  -89.3970   -7.0200 H       2  LIG2        0.0331
     21    H      -67.0390  -87.5620   -8.2290 H       2  LIG2        0.0269
     22    H      -67.4660  -85.9100   -8.4580 H       2  LIG2        0.0269
     23    H      -69.7810  -90.9780   -8.0130 H       2  LIG2        0.0301
     24    H      -67.2590  -90.8060   -5.1790 H       2  LIG2        0.0269
     25    H      -68.6800  -90.2030   -4.3470 H       2  LIG2        0.0269
     26    H      -67.1760  -85.8370   -6.1920 H       2  LIG2        0.0293
     27    H      -68.8720  -86.0890   -6.2980 H       2  LIG2        0.0293
     28    H      -67.7720  -89.0580  -10.7030 H       2  LIG2        0.0235
     29    H      -68.7280  -90.3840  -10.0660 H       2  LIG2        0.0235
     30    H      -67.5770  -89.5560   -9.0510 H       2  LIG2        0.0235
     31    H      -69.9040  -87.8900  -11.5430 H       2  LIG2        0.0235
     32    H      -71.2200  -87.5360  -10.4360 H       2  LIG2        0.0235
     33    H      -70.8960  -89.1980  -10.9000 H       2  LIG2        0.0235
     34    H      -69.7330  -92.0200   -5.3020 H       2  LIG2        0.0268
     35    H      -68.5470  -92.1590   -6.5810 H       2  LIG2        0.0268
     36    H      -71.9130  -90.6850   -5.8440 H       2  LIG2        0.0233
     37    H      -71.7700  -92.0190   -6.9850 H       2  LIG2        0.0233
     38    H      -72.1570  -90.4070   -7.5670 H       2  LIG2        0.0233
     39    H      -69.5450  -87.4590   -4.2690 H       2  LIG2        0.0257
     40    H      -68.1150  -86.5600   -3.7940 H       2  LIG2        0.0257
     41    H      -68.2240  -88.2620   -3.4290 H       2  LIG2        0.0257
     42    H      -65.9590  -87.9950   -6.1650 H       2  LIG2        0.2102
@<TRIPOS>BOND
     1    31    13    1
     2    33    13    1
     3    28    12    1
     4    13    32    1
     5    13     3    1
     6    29    12    1
     7    12     3    1
     8    12    30    1
     9     3     4    1
    10     3     2    1
    11    18     4    1
    12     4     2    1
    13     4     7    1
    14    22     7    1
    15    21     7    1
    16     2    17    1
    17     2     5    1
    18    23     8    1
    19     7    11    1
    20    38    15    1
    21    20     6    1
    22     8    15    1
    23     8     5    1
    24     8    14    1
    25    37    15    1
    26    15    36    1
    27     5     6    1
    28     5    19    1
    29    35    14    1
    30    11    27    1
    31    11    26    1
    32    11     9    1
    33     6     9    1
    34     6    10    1
    35    42     1    1
    36    14    10    1
    37    14    34    1
    38     9     1    1
    39     9    16    1
    40    10    24    1
    41    10    25    1
    42    39    16    1
    43    16    40    1
    44    16    41    1
@<TRIPOS>MOLECULE
11996452_2_run_7.pdb
 42 44 0 0 0
SMALL
GASTEIGER

@<TRIPOS>ATOM
      1    O      -70.0390  -85.4090   -7.3880 O.3     2  LIG2       -0.3886
      2    C      -69.3630  -89.9430   -7.6100 C.3     2  LIG2       -0.0289
      3    C      -68.5100  -90.1080   -8.8560 C.3     2  LIG2       -0.0284
      4    C      -69.8960  -89.5050   -8.9920 C.3     2  LIG2       -0.0319
      5    C      -69.0980  -88.9580   -6.4270 C.3     2  LIG2       -0.0294
      6    C      -69.0500  -87.4240   -6.6350 C.3     2  LIG2       -0.0090
      7    C      -70.1630  -88.0180   -9.3100 C.3     2  LIG2       -0.0468
      8    C      -67.8160  -89.3010   -5.6330 C.3     2  LIG2       -0.0404
      9    C      -70.4040  -86.7300   -7.0190 C.3     2  LIG2        0.0664
     10    C      -68.3780  -86.9180   -5.3430 C.3     2  LIG2       -0.0471
     11    C      -71.0860  -87.3460   -8.2740 C.3     2  LIG2       -0.0237
     12    C      -67.2360  -89.2780   -9.1300 C.3     2  LIG2       -0.0593
     13    C      -68.3380  -91.5530   -9.3620 C.3     2  LIG2       -0.0593
     14    C      -67.3770  -88.0020   -4.9320 C.3     2  LIG2       -0.0498
     15    C      -67.9760  -90.4980   -4.6780 C.3     2  LIG2       -0.0621
     16    C      -71.4390  -86.6160   -5.8750 C.3     2  LIG2       -0.0358
     17    H      -69.7800  -90.8680   -7.2090 H       2  LIG2        0.0312
     18    H      -70.6350  -90.1410   -9.4830 H       2  LIG2        0.0309
     19    H      -69.9340  -89.1120   -5.7430 H       2  LIG2        0.0310
     20    H      -68.3340  -87.2000   -7.4190 H       2  LIG2        0.0331
     21    H      -69.2550  -87.4390   -9.4660 H       2  LIG2        0.0269
     22    H      -70.6750  -87.9860  -10.2720 H       2  LIG2        0.0269
     23    H      -67.0260  -89.5590   -6.3410 H       2  LIG2        0.0301
     24    H      -67.8810  -85.9570   -5.4930 H       2  LIG2        0.0269
     25    H      -69.0990  -86.7830   -4.5380 H       2  LIG2        0.0269
     26    H      -71.6940  -86.5910   -8.7760 H       2  LIG2        0.0293
     27    H      -71.8140  -88.0960   -7.9550 H       2  LIG2        0.0293
     28    H      -67.0140  -89.2660  -10.1970 H       2  LIG2        0.0235
     29    H      -66.3740  -89.7150   -8.6260 H       2  LIG2        0.0235
     30    H      -67.2850  -88.2420   -8.8220 H       2  LIG2        0.0235
     31    H      -68.1270  -91.5730  -10.4320 H       2  LIG2        0.0235
     32    H      -69.2300  -92.1590   -9.1980 H       2  LIG2        0.0235
     33    H      -67.5130  -92.0510   -8.8490 H       2  LIG2        0.0235
     34    H      -67.3380  -88.1030   -3.8460 H       2  LIG2        0.0268
     35    H      -66.3730  -87.7240   -5.2560 H       2  LIG2        0.0268
     36    H      -68.7410  -90.3070   -3.9250 H       2  LIG2        0.0233
     37    H      -67.0420  -90.7100   -4.1560 H       2  LIG2        0.0233
     38    H      -68.2590  -91.4010   -5.2200 H       2  LIG2        0.0233
     39    H      -71.6990  -87.5940   -5.4690 H       2  LIG2        0.0257
     40    H      -72.3660  -86.1560   -6.2230 H       2  LIG2        0.0257
     41    H      -71.0850  -85.9990   -5.0490 H       2  LIG2        0.0257
     42    H      -70.8280  -84.9460   -7.6790 H       2  LIG2        0.2102
@<TRIPOS>BOND
     1    31    13    1
     2    22     7    1
     3    28    12    1
     4    18     4    1
     5    21     7    1
     6    13    32    1
     7    13     3    1
     8    13    33    1
     9     7     4    1
    10     7    11    1
    11    12     3    1
    12    12    30    1
    13    12    29    1
    14     4     3    1
    15     4     2    1
    16     3     2    1
    17    26    11    1
    18    11    27    1
    19    11     9    1
    20    42     1    1
    21     2    17    1
    22     2     5    1
    23    20     6    1
    24     1     9    1
    25     9     6    1
    26     9    16    1
    27     6     5    1
    28     6    10    1
    29     5    19    1
    30     5     8    1
    31    23     8    1
    32    40    16    1
    33    16    39    1
    34    16    41    1
    35     8    14    1
    36     8    15    1
    37    24    10    1
    38    10    14    1
    39    10    25    1
    40    35    14    1
    41    38    15    1
    42    14    34    1
    43    15    37    1
    44    15    36    1
@<TRIPOS>MOLECULE
11996452_2_run_1.pdb
 42 44 0 0 0
SMALL
GASTEIGER

@<TRIPOS>ATOM
      1    O      -71.9570  -85.3930   -5.9290 O.3     2  LIG2       -0.3886
      2    C      -70.5220  -89.2780   -7.9090 C.3     2  LIG2       -0.0289
      3    C      -70.5050  -88.9300   -9.3870 C.3     2  LIG2       -0.0284
      4    C      -71.8210  -88.8630   -8.6350 C.3     2  LIG2       -0.0319
      5    C      -69.8680  -88.4520   -6.7540 C.3     2  LIG2       -0.0294
      6    C      -70.2930  -86.9950   -6.4480 C.3     2  LIG2       -0.0090
      7    C      -72.5470  -87.5470   -8.2810 C.3     2  LIG2       -0.0468
      8    C      -68.3250  -88.4180   -6.8370 C.3     2  LIG2       -0.0404
      9    C      -71.7430  -86.7950   -5.8820 C.3     2  LIG2        0.0664
     10    C      -69.1470  -86.4780   -5.5560 C.3     2  LIG2       -0.0471
     11    C      -72.8520  -87.4230   -6.7760 C.3     2  LIG2       -0.0237
     12    C      -69.8320  -87.6600   -9.9540 C.3     2  LIG2       -0.0593
     13    C      -70.3260  -90.1180  -10.3520 C.3     2  LIG2       -0.0593
     14    C      -67.8750  -87.1690   -6.0550 C.3     2  LIG2       -0.0498
     15    C      -67.6460  -89.7190   -6.3710 C.3     2  LIG2       -0.0621
     16    C      -71.9510  -87.2410   -4.4150 C.3     2  LIG2       -0.0358
     17    H      -70.4200  -90.3390   -7.6820 H       2  LIG2        0.0312
     18    H      -72.5410  -89.6430   -8.8840 H       2  LIG2        0.0309
     19    H      -70.1160  -89.0030   -5.8440 H       2  LIG2        0.0310
     20    H      -70.2140  -86.4100   -7.3580 H       2  LIG2        0.0331
     21    H      -72.0430  -86.6590   -8.6580 H       2  LIG2        0.0269
     22    H      -73.5020  -87.5600   -8.8070 H       2  LIG2        0.0269
     23    H      -68.0350  -88.2600   -7.8770 H       2  LIG2        0.0301
     24    H      -69.0520  -85.3920   -5.6050 H       2  LIG2        0.0269
     25    H      -69.3000  -86.7390   -4.5100 H       2  LIG2        0.0269
     26    H      -73.7880  -86.8760   -6.6460 H       2  LIG2        0.0293
     27    H      -73.0830  -88.4250   -6.4090 H       2  LIG2        0.0293
     28    H      -70.2570  -87.4080  -10.9260 H       2  LIG2        0.0235
     29    H      -68.7640  -87.8220  -10.1020 H       2  LIG2        0.0235
     30    H      -69.9310  -86.7730   -9.3430 H       2  LIG2        0.0235
     31    H      -70.7550  -89.8990  -11.3300 H       2  LIG2        0.0235
     32    H      -70.8080  -91.0250   -9.9850 H       2  LIG2        0.0235
     33    H      -69.2700  -90.3500  -10.4940 H       2  LIG2        0.0235
     34    H      -67.2120  -87.4110   -5.2240 H       2  LIG2        0.0268
     35    H      -67.3200  -86.4980   -6.7130 H       2  LIG2        0.0268
     36    H      -67.8760  -89.9370   -5.3280 H       2  LIG2        0.0233
     37    H      -66.5620  -89.6510   -6.4650 H       2  LIG2        0.0233
     38    H      -67.9720  -90.5710   -6.9690 H       2  LIG2        0.0233
     39    H      -71.7100  -88.2960   -4.2780 H       2  LIG2        0.0257
     40    H      -72.9880  -87.1060   -4.1030 H       2  LIG2        0.0257
     41    H      -71.3440  -86.6690   -3.7130 H       2  LIG2        0.0257
     42    H      -71.9630  -85.1170   -6.8480 H       2  LIG2        0.2102
@<TRIPOS>BOND
     1    31    13    1
     2    28    12    1
     3    33    13    1
     4    13    32    1
     5    13     3    1
     6    29    12    1
     7    12     3    1
     8    12    30    1
     9     3     4    1
    10     3     2    1
    11    18     4    1
    12    22     7    1
    13    21     7    1
    14     4     7    1
    15     4     2    1
    16     7    11    1
    17     2    17    1
    18     2     5    1
    19    23     8    1
    20    20     6    1
    21    38    15    1
    22    42     1    1
    23     8     5    1
    24     8    15    1
    25     8    14    1
    26    11    26    1
    27    11    27    1
    28    11     9    1
    29     5     6    1
    30     5    19    1
    31    35    14    1
    32    37    15    1
    33     6     9    1
    34     6    10    1
    35    15    36    1
    36    14    10    1
    37    14    34    1
    38     1     9    1
    39     9    16    1
    40    24    10    1
    41    10    25    1
    42    16    39    1
    43    16    40    1
    44    16    41    1
@<TRIPOS>MOLECULE
11996452_2_run_18.pdb
 42 44 0 0 0
SMALL
GASTEIGER

@<TRIPOS>ATOM
      1    O      -66.1860  -89.5880   -8.7530 O.3     2  LIG2       -0.3886
      2    C      -70.5620  -88.7420   -7.6590 C.3     2  LIG2       -0.0289
      3    C      -70.4990  -87.3740   -7.0020 C.3     2  LIG2       -0.0284
      4    C      -69.7330  -88.5240   -6.3740 C.3     2  LIG2       -0.0319
      5    C      -69.9430  -89.1380   -9.0380 C.3     2  LIG2       -0.0294
      6    C      -68.4210  -89.0430   -9.3090 C.3     2  LIG2       -0.0090
      7    C      -68.1940  -88.6450   -6.3880 C.3     2  LIG2       -0.0468
      8    C      -70.6140  -88.4160  -10.2300 C.3     2  LIG2       -0.0404
      9    C      -67.5090  -90.0450   -8.5180 C.3     2  LIG2        0.0664
     10    C      -68.3350  -89.1260  -10.8460 C.3     2  LIG2       -0.0471
     11    C      -67.7090  -89.9850   -6.9760 C.3     2  LIG2       -0.0237
     12    C      -69.7710  -86.1630   -7.6270 C.3     2  LIG2       -0.0593
     13    C      -71.7790  -86.9230   -6.2710 C.3     2  LIG2       -0.0593
     14    C      -69.5910  -88.4310  -11.3810 C.3     2  LIG2       -0.0498
     15    C      -71.9890  -88.9930  -10.6140 C.3     2  LIG2       -0.0621
     16    C      -67.5750  -91.5180   -8.9880 C.3     2  LIG2       -0.0358
     17    H      -71.5070  -89.2720   -7.5340 H       2  LIG2        0.0312
     18    H      -70.1390  -88.8960   -5.4320 H       2  LIG2        0.0309
     19    H      -70.1720  -90.1990   -9.1520 H       2  LIG2        0.0310
     20    H      -68.0860  -88.0380   -9.0730 H       2  LIG2        0.0331
     21    H      -67.6970  -87.8010   -6.8620 H       2  LIG2        0.0269
     22    H      -67.8630  -88.6070   -5.3490 H       2  LIG2        0.0269
     23    H      -70.7700  -87.3700   -9.9610 H       2  LIG2        0.0301
     24    H      -67.4290  -88.6540  -11.2290 H       2  LIG2        0.0269
     25    H      -68.3300  -90.1580  -11.1960 H       2  LIG2        0.0269
     26    H      -66.7890  -90.2840   -6.4690 H       2  LIG2        0.0293
     27    H      -68.4300  -90.7490   -6.6780 H       2  LIG2        0.0293
     28    H      -69.5140  -85.4360   -6.8560 H       2  LIG2        0.0235
     29    H      -70.4140  -85.6550   -8.3460 H       2  LIG2        0.0235
     30    H      -68.8480  -86.3940   -8.1410 H       2  LIG2        0.0235
     31    H      -71.5510  -86.2040   -5.4840 H       2  LIG2        0.0235
     32    H      -72.3040  -87.7570   -5.8040 H       2  LIG2        0.0235
     33    H      -72.4770  -86.4500   -6.9640 H       2  LIG2        0.0235
     34    H      -69.9670  -88.9390  -12.2700 H       2  LIG2        0.0268
     35    H      -69.3530  -87.4100  -11.6810 H       2  LIG2        0.0268
     36    H      -71.9120  -90.0390  -10.9140 H       2  LIG2        0.0233
     37    H      -72.4270  -88.4410  -11.4450 H       2  LIG2        0.0233
     38    H      -72.6890  -88.9370   -9.7790 H       2  LIG2        0.0233
     39    H      -68.5890  -91.9130   -8.9280 H       2  LIG2        0.0257
     40    H      -66.9430  -92.1590   -8.3710 H       2  LIG2        0.0257
     41    H      -67.2300  -91.6460  -10.0140 H       2  LIG2        0.0257
     42    H      -66.0160  -88.8380   -8.1790 H       2  LIG2        0.2102
@<TRIPOS>BOND
     1    34    14    1
     2    35    14    1
     3    37    15    1
     4    14    10    1
     5    14     8    1
     6    24    10    1
     7    25    10    1
     8    36    15    1
     9    10     6    1
    10    15     8    1
    11    15    38    1
    12     8    23    1
    13     8     5    1
    14    41    16    1
    15     6    20    1
    16     6     5    1
    17     6     9    1
    18    19     5    1
    19     5     2    1
    20    16    39    1
    21    16     9    1
    22    16    40    1
    23     1     9    1
    24     1    42    1
    25     9    11    1
    26    29    12    1
    27    30    12    1
    28     2    17    1
    29     2     3    1
    30     2     4    1
    31    12     3    1
    32    12    28    1
    33     3     4    1
    34     3    13    1
    35    11    27    1
    36    11    26    1
    37    11     7    1
    38    33    13    1
    39    21     7    1
    40     7     4    1
    41     7    22    1
    42     4    18    1
    43    13    32    1
    44    13    31    1
