@<TRIPOS>MOLECULE
11996452_run_17.pdb
 42 44 0 0 0
SMALL
GASTEIGER

@<TRIPOS>ATOM
      1    O      -67.0610  -87.1590   -9.9100 O.3     2  LIG2       -0.3886
      2    C      -70.6490  -89.1330   -8.1580 C.3     2  LIG2       -0.0289
      3    C      -71.5350  -88.8510   -6.9510 C.3     2  LIG2       -0.0284
      4    C      -70.0870  -88.4240   -6.9150 C.3     2  LIG2       -0.0319
      5    C      -70.7360  -88.3300   -9.4890 C.3     2  LIG2       -0.0294
      6    C      -69.3610  -87.8820  -10.0880 C.3     2  LIG2       -0.0090
      7    C      -69.5930  -86.9760   -7.0990 C.3     2  LIG2       -0.0468
      8    C      -71.4370  -89.0970  -10.6360 C.3     2  LIG2       -0.0404
      9    C      -68.0960  -87.7750   -9.1570 C.3     2  LIG2        0.0664
     10    C      -69.1790  -88.7020  -11.3910 C.3     2  LIG2       -0.0471
     11    C      -68.2820  -86.8530   -7.9060 C.3     2  LIG2       -0.0237
     12    C      -72.6740  -87.8050   -6.9950 C.3     2  LIG2       -0.0593
     13    C      -71.9230  -90.0700   -6.0940 C.3     2  LIG2       -0.0593
     14    C      -70.2920  -89.7490  -11.4120 C.3     2  LIG2       -0.0498
     15    C      -72.5590  -90.0720  -10.2240 C.3     2  LIG2       -0.0621
     16    C      -67.4620  -89.1350   -8.7480 C.3     2  LIG2       -0.0358
     17    H      -70.3260  -90.1610   -8.3220 H       2  LIG2        0.0312
     18    H      -69.4410  -88.9810   -6.2360 H       2  LIG2        0.0309
     19    H      -71.3240  -87.4300   -9.3150 H       2  LIG2        0.0310
     20    H      -69.5360  -86.8570  -10.4260 H       2  LIG2        0.0331
     21    H      -70.3460  -86.3560   -7.5800 H       2  LIG2        0.0269
     22    H      -69.4490  -86.5260   -6.1150 H       2  LIG2        0.0269
     23    H      -71.9000  -88.3590  -11.2960 H       2  LIG2        0.0301
     24    H      -69.2780  -88.0450  -12.2560 H       2  LIG2        0.0269
     25    H      -68.2000  -89.1720  -11.4840 H       2  LIG2        0.0269
     26    H      -68.2180  -85.8050   -8.2100 H       2  LIG2        0.0293
     27    H      -67.4460  -87.0020   -7.2200 H       2  LIG2        0.0293
     28    H      -72.9280  -87.4750   -5.9860 H       2  LIG2        0.0235
     29    H      -73.5730  -88.2340   -7.4350 H       2  LIG2        0.0235
     30    H      -72.4430  -86.9070   -7.5620 H       2  LIG2        0.0235
     31    H      -72.1490  -89.7740   -5.0700 H       2  LIG2        0.0235
     32    H      -71.1240  -90.8120   -6.0490 H       2  LIG2        0.0235
     33    H      -72.8030  -90.5690   -6.5010 H       2  LIG2        0.0235
     34    H      -69.9640  -90.6650  -10.9180 H       2  LIG2        0.0268
     35    H      -70.5810  -90.0080  -12.4310 H       2  LIG2        0.0268
     36    H      -72.1850  -90.9020   -9.6250 H       2  LIG2        0.0233
     37    H      -73.0440  -90.4970  -11.1040 H       2  LIG2        0.0233
     38    H      -73.3280  -89.5600   -9.6440 H       2  LIG2        0.0233
     39    H      -68.1050  -89.7420   -8.1180 H       2  LIG2        0.0257
     40    H      -66.5390  -88.9900   -8.1830 H       2  LIG2        0.0257
     41    H      -67.2000  -89.7490   -9.6080 H       2  LIG2        0.0257
     42    H      -67.3590  -86.2870  -10.1770 H       2  LIG2        0.2102
@<TRIPOS>BOND
     1    35    14    1
     2    24    10    1
     3    25    10    1
     4    14    10    1
     5    14    34    1
     6    14     8    1
     7    10     6    1
     8    23     8    1
     9    37    15    1
    10     8    15    1
    11     8     5    1
    12    20     6    1
    13    15    38    1
    14    15    36    1
    15    42     1    1
    16     6     5    1
    17     6     9    1
    18     1     9    1
    19    41    16    1
    20     5    19    1
    21     5     2    1
    22     9    16    1
    23     9    11    1
    24    16    40    1
    25    16    39    1
    26    17     2    1
    27    26    11    1
    28     2     3    1
    29     2     4    1
    30    11    27    1
    31    11     7    1
    32    21     7    1
    33    30    12    1
    34    29    12    1
    35     7     4    1
    36     7    22    1
    37    12     3    1
    38    12    28    1
    39     3     4    1
    40     3    13    1
    41     4    18    1
    42    33    13    1
    43    13    32    1
    44    13    31    1
@<TRIPOS>MOLECULE
11996452_run_20.pdb
 42 44 0 0 0
SMALL
GASTEIGER

@<TRIPOS>ATOM
      1    O      -72.6180  -89.0930  -11.9290 O.3     2  LIG2       -0.3886
      2    C      -69.7030  -89.1870   -8.5630 C.3     2  LIG2       -0.0289
      3    C      -68.1990  -88.9680   -8.4520 C.3     2  LIG2       -0.0284
      4    C      -68.7720  -89.4950   -9.7460 C.3     2  LIG2       -0.0319
      5    C      -70.7270  -88.0230   -8.7150 C.3     2  LIG2       -0.0294
      6    C      -71.8220  -88.2390   -9.8120 C.3     2  LIG2       -0.0090
      7    C      -68.9650  -88.6600  -11.0260 C.3     2  LIG2       -0.0468
      8    C      -71.5190  -87.7160   -7.4200 C.3     2  LIG2       -0.0404
      9    C      -71.5670  -89.2530  -10.9890 C.3     2  LIG2        0.0664
     10    C      -73.1600  -88.4070   -9.0490 C.3     2  LIG2       -0.0471
     11    C      -70.2580  -88.9880  -11.8060 C.3     2  LIG2       -0.0237
     12    C      -67.5780  -87.5540   -8.3730 C.3     2  LIG2       -0.0593
     13    C      -67.4310  -89.9710   -7.5700 C.3     2  LIG2       -0.0593
     14    C      -72.8110  -88.5210   -7.5650 C.3     2  LIG2       -0.0498
     15    C      -70.7740  -87.9470   -6.0890 C.3     2  LIG2       -0.0621
     16    C      -71.6770  -90.7540  -10.6000 C.3     2  LIG2       -0.0358
     17    H      -70.1320  -90.0430   -8.0420 H       2  LIG2        0.0312
     18    H      -68.5440  -90.5360   -9.9810 H       2  LIG2        0.0309
     19    H      -70.1860  -87.1140   -8.9690 H       2  LIG2        0.0310
     20    H      -71.9020  -87.2660  -10.3060 H       2  LIG2        0.0331
     21    H      -68.9620  -87.5940  -10.8100 H       2  LIG2        0.0269
     22    H      -68.1060  -88.8150  -11.6810 H       2  LIG2        0.0269
     23    H      -71.7890  -86.6580   -7.4390 H       2  LIG2        0.0301
     24    H      -73.7890  -87.5290   -9.2100 H       2  LIG2        0.0269
     25    H      -73.7520  -89.2610   -9.3770 H       2  LIG2        0.0269
     26    H      -70.4150  -88.1490  -12.4880 H       2  LIG2        0.0293
     27    H      -70.0560  -89.8450  -12.4510 H       2  LIG2        0.0293
     28    H      -66.5310  -87.5790   -8.6780 H       2  LIG2        0.0235
     29    H      -67.6130  -87.1750   -7.3520 H       2  LIG2        0.0235
     30    H      -68.0630  -86.8100   -9.0000 H       2  LIG2        0.0235
     31    H      -66.3870  -90.0430   -7.8760 H       2  LIG2        0.0235
     32    H      -67.8550  -90.9750   -7.6250 H       2  LIG2        0.0235
     33    H      -67.4540  -89.6670   -6.5230 H       2  LIG2        0.0235
     34    H      -72.6480  -89.5640   -7.2900 H       2  LIG2        0.0268
     35    H      -73.6100  -88.1330   -6.9330 H       2  LIG2        0.0268
     36    H      -70.5290  -88.9980   -5.9310 H       2  LIG2        0.0233
     37    H      -71.3830  -87.6250   -5.2440 H       2  LIG2        0.0233
     38    H      -69.8440  -87.3780   -6.0570 H       2  LIG2        0.0233
     39    H      -70.9110  -91.0810   -9.9040 H       2  LIG2        0.0257
     40    H      -71.5830  -91.4010  -11.4750 H       2  LIG2        0.0257
     41    H      -72.6350  -90.9980  -10.1440 H       2  LIG2        0.0257
     42    H      -72.8550  -88.1630  -11.9630 H       2  LIG2        0.2102
@<TRIPOS>BOND
     1    26    11    1
     2    27    11    1
     3    42     1    1
     4     1     9    1
     5    11     7    1
     6    11     9    1
     7    22     7    1
     8    40    16    1
     9     7    21    1
    10     7     4    1
    11     9    16    1
    12     9     6    1
    13    16    41    1
    14    16    39    1
    15    20     6    1
    16    18     4    1
    17     6    10    1
    18     6     5    1
    19     4     2    1
    20     4     3    1
    21    25    10    1
    22    24    10    1
    23    10    14    1
    24    30    12    1
    25    19     5    1
    26     5     2    1
    27     5     8    1
    28    28    12    1
    29     2     3    1
    30     2    17    1
    31     3    12    1
    32     3    13    1
    33    12    29    1
    34    31    13    1
    35    32    13    1
    36    13    33    1
    37    14     8    1
    38    14    34    1
    39    14    35    1
    40    23     8    1
    41     8    15    1
    42    15    38    1
    43    15    36    1
    44    15    37    1
@<TRIPOS>MOLECULE
11996452_run_9.pdb
 42 44 0 0 0
SMALL
GASTEIGER

@<TRIPOS>ATOM
      1    O      -66.5590  -87.0040   -5.6790 O.3     2  LIG2       -0.3886
      2    C      -70.7850  -88.0590   -6.6100 C.3     2  LIG2       -0.0289
      3    C      -72.1210  -87.8090   -5.9200 C.3     2  LIG2       -0.0284
      4    C      -70.8680  -87.9030   -5.0830 C.3     2  LIG2       -0.0319
      5    C      -70.0250  -86.9690   -7.4220 C.3     2  LIG2       -0.0294
      6    C      -68.4920  -86.8650   -7.1240 C.3     2  LIG2       -0.0090
      7    C      -70.1330  -86.7000   -4.4610 C.3     2  LIG2       -0.0468
      8    C      -70.1190  -87.1550   -8.9560 C.3     2  LIG2       -0.0404
      9    C      -67.9160  -87.4120   -5.7650 C.3     2  LIG2        0.0664
     10    C      -67.7760  -87.3510   -8.4100 C.3     2  LIG2       -0.0471
     11    C      -68.5930  -86.8190   -4.4840 C.3     2  LIG2       -0.0237
     12    C      -72.8820  -86.4700   -6.0660 C.3     2  LIG2       -0.0593
     13    C      -73.0890  -89.0050   -5.8620 C.3     2  LIG2       -0.0593
     14    C      -68.8550  -87.9350   -9.3220 C.3     2  LIG2       -0.0498
     15    C      -71.4240  -87.7780   -9.4930 C.3     2  LIG2       -0.0621
     16    C      -67.8190  -88.9600   -5.6670 C.3     2  LIG2       -0.0358
     17    H      -70.5900  -89.0620   -6.9890 H       2  LIG2        0.0312
     18    H      -70.7770  -88.7910   -4.4560 H       2  LIG2        0.0309
     19    H      -70.4670  -85.9990   -7.2020 H       2  LIG2        0.0310
     20    H      -68.2980  -85.7890   -7.0860 H       2  LIG2        0.0331
     21    H      -70.4080  -85.7690   -4.9520 H       2  LIG2        0.0269
     22    H      -70.4650  -86.5800   -3.4290 H       2  LIG2        0.0269
     23    H      -70.0390  -86.1690   -9.4170 H       2  LIG2        0.0301
     24    H      -67.2960  -86.5050   -8.9060 H       2  LIG2        0.0269
     25    H      -66.9850  -88.0770   -8.2280 H       2  LIG2        0.0269
     26    H      -68.2150  -85.8090   -4.3040 H       2  LIG2        0.0293
     27    H      -68.2850  -87.3980   -3.6120 H       2  LIG2        0.0293
     28    H      -73.5780  -86.3350   -5.2370 H       2  LIG2        0.0235
     29    H      -73.4640  -86.4570   -6.9870 H       2  LIG2        0.0235
     30    H      -72.2480  -85.5870   -6.0820 H       2  LIG2        0.0235
     31    H      -73.7750  -88.9130   -5.0200 H       2  LIG2        0.0235
     32    H      -72.5630  -89.9540   -5.7500 H       2  LIG2        0.0235
     33    H      -73.6840  -89.0700   -6.7740 H       2  LIG2        0.0235
     34    H      -68.9870  -89.0000   -9.1230 H       2  LIG2        0.0268
     35    H      -68.5940  -87.8250  -10.3750 H       2  LIG2        0.0268
     36    H      -71.5600  -88.8060   -9.1560 H       2  LIG2        0.0233
     37    H      -71.4270  -87.7900  -10.5840 H       2  LIG2        0.0233
     38    H      -72.2930  -87.2030   -9.1720 H       2  LIG2        0.0233
     39    H      -68.7830  -89.4590   -5.6740 H       2  LIG2        0.0257
     40    H      -67.3270  -89.2710   -4.7430 H       2  LIG2        0.0257
     41    H      -67.2390  -89.3950   -6.4800 H       2  LIG2        0.0257
     42    H      -66.0750  -87.4090   -6.4020 H       2  LIG2        0.2102
@<TRIPOS>BOND
     1    37    15    1
     2    35    14    1
     3    15    38    1
     4    15    36    1
     5    15     8    1
     6    23     8    1
     7    14    34    1
     8    14     8    1
     9    14    10    1
    10     8     5    1
    11    24    10    1
    12    10    25    1
    13    10     6    1
    14     5    19    1
    15     5     6    1
    16     5     2    1
    17     6    20    1
    18     6     9    1
    19    17     2    1
    20    29    12    1
    21    33    13    1
    22     2     3    1
    23     2     4    1
    24    41    16    1
    25    42     1    1
    26    30    12    1
    27    12     3    1
    28    12    28    1
    29     3    13    1
    30     3     4    1
    31    13    32    1
    32    13    31    1
    33     9     1    1
    34     9    16    1
    35     9    11    1
    36    39    16    1
    37    16    40    1
    38     4     7    1
    39     4    18    1
    40    21     7    1
    41    11     7    1
    42    11    26    1
    43    11    27    1
    44     7    22    1
@<TRIPOS>MOLECULE
11996452_run_3.pdb
 42 44 0 0 0
SMALL
GASTEIGER

@<TRIPOS>ATOM
      1    O      -66.8140  -87.6000   -5.9000 O.3     2  LIG2       -0.3886
      2    C      -70.7970  -87.8330   -7.8800 C.3     2  LIG2       -0.0289
      3    C      -71.4800  -88.8560   -8.7790 C.3     2  LIG2       -0.0284
      4    C      -69.9740  -88.7450   -8.8040 C.3     2  LIG2       -0.0319
      5    C      -70.6470  -88.0130   -6.3410 C.3     2  LIG2       -0.0294
      6    C      -69.2260  -87.6890   -5.7680 C.3     2  LIG2       -0.0090
      7    C      -69.0090  -89.7380   -8.1280 C.3     2  LIG2       -0.0468
      8    C      -71.6180  -87.1370   -5.5120 C.3     2  LIG2       -0.0404
      9    C      -67.9700  -87.7260   -6.7150 C.3     2  LIG2        0.0664
     10    C      -69.3960  -86.4080   -4.9130 C.3     2  LIG2       -0.0471
     11    C      -67.7710  -89.0760   -7.4830 C.3     2  LIG2       -0.0237
     12    C      -72.1770  -90.1140   -8.2100 C.3     2  LIG2       -0.0593
     13    C      -72.2390  -88.2920   -9.9950 C.3     2  LIG2       -0.0593
     14    C      -70.8070  -85.8830   -5.1790 C.3     2  LIG2       -0.0498
     15    C      -72.9940  -86.8510   -6.1460 C.3     2  LIG2       -0.0621
     16    C      -67.8410  -86.5190   -7.6860 C.3     2  LIG2       -0.0358
     17    H      -70.8640  -86.7820   -8.1640 H       2  LIG2        0.0312
     18    H      -69.5400  -88.3240   -9.7120 H       2  LIG2        0.0309
     19    H      -70.8720  -89.0470   -6.0870 H       2  LIG2        0.0310
     20    H      -69.0410  -88.4860   -5.0420 H       2  LIG2        0.0331
     21    H      -69.5130  -90.3270   -7.3650 H       2  LIG2        0.0269
     22    H      -68.6770  -90.4660   -8.8690 H       2  LIG2        0.0269
     23    H      -71.8160  -87.6570   -4.5720 H       2  LIG2        0.0301
     24    H      -69.2910  -86.6540   -3.8550 H       2  LIG2        0.0269
     25    H      -68.6500  -85.6390   -5.1160 H       2  LIG2        0.0269
     26    H      -67.3530  -89.8250   -6.8050 H       2  LIG2        0.0293
     27    H      -67.0150  -88.9420   -8.2590 H       2  LIG2        0.0293
     28    H      -72.2590  -90.8850   -8.9780 H       2  LIG2        0.0235
     29    H      -73.1860  -89.8760   -7.8760 H       2  LIG2        0.0235
     30    H      -71.6660  -90.5730   -7.3680 H       2  LIG2        0.0235
     31    H      -72.3060  -89.0310  -10.7930 H       2  LIG2        0.0235
     32    H      -71.7520  -87.4090  -10.4100 H       2  LIG2        0.0235
     33    H      -73.2540  -88.0010   -9.7200 H       2  LIG2        0.0235
     34    H      -70.8040  -85.1900   -6.0220 H       2  LIG2        0.0268
     35    H      -71.2070  -85.3520   -4.3150 H       2  LIG2        0.0268
     36    H      -72.9140  -86.2570   -7.0570 H       2  LIG2        0.0233
     37    H      -73.6310  -86.2990   -5.4530 H       2  LIG2        0.0233
     38    H      -73.5110  -87.7780   -6.3960 H       2  LIG2        0.0233
     39    H      -68.6320  -86.4710   -8.4290 H       2  LIG2        0.0257
     40    H      -66.9050  -86.5560   -8.2470 H       2  LIG2        0.0257
     41    H      -67.8460  -85.5620   -7.1660 H       2  LIG2        0.0257
     42    H      -66.0390  -87.6600   -6.4620 H       2  LIG2        0.2102
@<TRIPOS>BOND
     1    31    13    1
     2    32    13    1
     3    13    33    1
     4    13     3    1
     5    18     4    1
     6    28    12    1
     7    22     7    1
     8     4     3    1
     9     4     7    1
    10     4     2    1
    11     3    12    1
    12     3     2    1
    13    39    16    1
    14    27    11    1
    15    40    16    1
    16    12    29    1
    17    12    30    1
    18    17     2    1
    19     7    11    1
    20     7    21    1
    21     2     5    1
    22    16    41    1
    23    16     9    1
    24    11    26    1
    25    11     9    1
    26    36    15    1
    27     9     1    1
    28     9     6    1
    29    42     1    1
    30    38    15    1
    31     5    19    1
    32     5     6    1
    33     5     8    1
    34    15     8    1
    35    15    37    1
    36    34    14    1
    37     6    20    1
    38     6    10    1
    39     8    14    1
    40     8    23    1
    41    14    10    1
    42    14    35    1
    43    25    10    1
    44    10    24    1
@<TRIPOS>MOLECULE
11996452_run_1.pdb
 42 44 0 0 0
SMALL
GASTEIGER

@<TRIPOS>ATOM
      1    O      -70.5110  -90.3600  -12.1790 O.3     2  LIG2       -0.3886
      2    C      -69.6890  -88.2210   -8.3600 C.3     2  LIG2       -0.0289
      3    C      -70.5390  -87.4090   -7.3900 C.3     2  LIG2       -0.0284
      4    C      -70.9230  -87.4490   -8.8500 C.3     2  LIG2       -0.0319
      5    C      -69.7180  -89.7770   -8.4260 C.3     2  LIG2       -0.0294
      6    C      -69.8020  -90.3800   -9.8680 C.3     2  LIG2       -0.0090
      7    C      -72.0830  -88.2790   -9.4320 C.3     2  LIG2       -0.0468
      8    C      -68.4810  -90.4520   -7.7850 C.3     2  LIG2       -0.0404
      9    C      -70.3570  -89.5070  -11.0540 C.3     2  LIG2        0.0664
     10    C      -68.4390  -91.0760  -10.1160 C.3     2  LIG2       -0.0471
     11    C      -71.7820  -88.9070  -10.8110 C.3     2  LIG2       -0.0237
     12    C      -71.4260  -88.0800   -6.3150 C.3     2  LIG2       -0.0593
     13    C      -69.9140  -86.1020   -6.8700 C.3     2  LIG2       -0.0593
     14    C      -67.5250  -90.6830   -8.9560 C.3     2  LIG2       -0.0498
     15    C      -67.8460  -89.7220   -6.5840 C.3     2  LIG2       -0.0621
     16    C      -69.3830  -88.4150  -11.5800 C.3     2  LIG2       -0.0358
     17    H      -68.7160  -87.8190   -8.6410 H       2  LIG2        0.0312
     18    H      -70.7790  -86.5220   -9.4080 H       2  LIG2        0.0309
     19    H      -70.5850  -90.1330   -7.8730 H       2  LIG2        0.0310
     20    H      -70.5210  -91.1990   -9.7750 H       2  LIG2        0.0331
     21    H      -72.3810  -89.0770   -8.7550 H       2  LIG2        0.0269
     22    H      -72.9650  -87.6410   -9.5170 H       2  LIG2        0.0269
     23    H      -68.7900  -91.4330   -7.4180 H       2  LIG2        0.0301
     24    H      -68.5750  -92.1590  -10.1240 H       2  LIG2        0.0269
     25    H      -67.9830  -90.8260  -11.0740 H       2  LIG2        0.0269
     26    H      -72.5370  -89.6840  -10.9550 H       2  LIG2        0.0293
     27    H      -71.9940  -88.1590  -11.5780 H       2  LIG2        0.0293
     28    H      -72.2170  -87.4010   -5.9950 H       2  LIG2        0.0235
     29    H      -70.8360  -88.3350   -5.4350 H       2  LIG2        0.0235
     30    H      -71.9180  -88.9940   -6.6390 H       2  LIG2        0.0235
     31    H      -70.6830  -85.3890   -6.5740 H       2  LIG2        0.0235
     32    H      -69.2930  -85.6150   -7.6230 H       2  LIG2        0.0235
     33    H      -69.2800  -86.2910   -6.0020 H       2  LIG2        0.0235
     34    H      -66.9780  -89.7690   -9.1940 H       2  LIG2        0.0268
     35    H      -66.7910  -91.4600   -8.7410 H       2  LIG2        0.0268
     36    H      -67.4270  -88.7560   -6.8630 H       2  LIG2        0.0233
     37    H      -67.0390  -90.3160   -6.1530 H       2  LIG2        0.0233
     38    H      -68.5820  -89.5530   -5.7960 H       2  LIG2        0.0233
     39    H      -69.1750  -87.6330  -10.8570 H       2  LIG2        0.0257
     40    H      -69.7890  -87.9090  -12.4590 H       2  LIG2        0.0257
     41    H      -68.4200  -88.8240  -11.8820 H       2  LIG2        0.0257
     42    H      -69.6530  -90.7320  -12.3970 H       2  LIG2        0.2102
@<TRIPOS>BOND
     1    40    16    1
     2    42     1    1
     3     1     9    1
     4    41    16    1
     5    16     9    1
     6    16    39    1
     7    27    11    1
     8    25    10    1
     9     9    11    1
    10     9     6    1
    11    26    11    1
    12    11     7    1
    13    24    10    1
    14    10     6    1
    15    10    14    1
    16     6    20    1
    17     6     5    1
    18    22     7    1
    19     7     4    1
    20     7    21    1
    21    18     4    1
    22    34    14    1
    23    14    35    1
    24    14     8    1
    25     4     2    1
    26     4     3    1
    27    17     2    1
    28     5     2    1
    29     5    19    1
    30     5     8    1
    31     2     3    1
    32     8    23    1
    33     8    15    1
    34    32    13    1
    35     3    13    1
    36     3    12    1
    37    13    31    1
    38    13    33    1
    39    36    15    1
    40    30    12    1
    41    15    37    1
    42    15    38    1
    43    12    28    1
    44    12    29    1
@<TRIPOS>MOLECULE
11996452_run_22.pdb
 42 44 0 0 0
SMALL
GASTEIGER

@<TRIPOS>ATOM
      1    O      -66.4590  -88.7610   -9.1790 O.3     2  LIG2       -0.3886
      2    C      -70.7810  -88.6150   -8.1140 C.3     2  LIG2       -0.0289
      3    C      -72.0720  -88.5270   -8.9180 C.3     2  LIG2       -0.0284
      4    C      -70.8100  -87.9250   -9.4870 C.3     2  LIG2       -0.0319
      5    C      -69.9540  -89.9260   -7.9650 C.3     2  LIG2       -0.0294
      6    C      -68.4100  -89.7670   -8.1680 C.3     2  LIG2       -0.0090
      7    C      -69.9610  -88.5580  -10.6070 C.3     2  LIG2       -0.0468
      8    C      -70.1040  -90.6050   -6.5810 C.3     2  LIG2       -0.0404
      9    C      -67.8470  -88.5410   -8.9790 C.3     2  LIG2        0.0664
     10    C      -67.7720  -90.0140   -6.7780 C.3     2  LIG2       -0.0471
     11    C      -68.4380  -88.3840  -10.4200 C.3     2  LIG2       -0.0237
     12    C      -72.7230  -89.7720   -9.5650 C.3     2  LIG2       -0.0593
     13    C      -73.1350  -87.5460   -8.3900 C.3     2  LIG2       -0.0593
     14    C      -68.9190  -90.0770   -5.7700 C.3     2  LIG2       -0.0498
     15    C      -71.4700  -90.4460   -5.8830 C.3     2  LIG2       -0.0621
     16    C      -67.8760  -87.1820   -8.2230 C.3     2  LIG2       -0.0358
     17    H      -70.6800  -87.9670   -7.2430 H       2  LIG2        0.0312
     18    H      -70.7770  -86.8350   -9.5310 H       2  LIG2        0.0309
     19    H      -70.3070  -90.6460   -8.7010 H       2  LIG2        0.0310
     20    H      -68.1270  -90.6390   -8.7650 H       2  LIG2        0.0331
     21    H      -70.1700  -89.6200  -10.7120 H       2  LIG2        0.0269
     22    H      -70.2550  -88.1190  -11.5610 H       2  LIG2        0.0269
     23    H      -69.9540  -91.6770   -6.7180 H       2  LIG2        0.0301
     24    H      -67.2360  -90.9650   -6.7820 H       2  LIG2        0.0269
     25    H      -67.0390  -89.2610   -6.4880 H       2  LIG2        0.0269
     26    H      -67.9720  -89.1130  -11.0880 H       2  LIG2        0.0293
     27    H      -68.1560  -87.4090  -10.8220 H       2  LIG2        0.0293
     28    H      -73.3830  -89.4770  -10.3820 H       2  LIG2        0.0235
     29    H      -73.3250  -90.3130   -8.8360 H       2  LIG2        0.0235
     30    H      -72.0180  -90.4860   -9.9830 H       2  LIG2        0.0235
     31    H      -73.7890  -87.2060   -9.1930 H       2  LIG2        0.0235
     32    H      -72.6870  -86.6590   -7.9380 H       2  LIG2        0.0235
     33    H      -73.7570  -88.0170   -7.6270 H       2  LIG2        0.0235
     34    H      -69.1340  -89.0830   -5.3740 H       2  LIG2        0.0268
     35    H      -68.6770  -90.7240   -4.9260 H       2  LIG2        0.0268
     36    H      -71.6820  -89.4080   -5.6240 H       2  LIG2        0.0233
     37    H      -71.5020  -91.0250   -4.9600 H       2  LIG2        0.0233
     38    H      -72.2790  -90.8030   -6.5210 H       2  LIG2        0.0233
     39    H      -68.8790  -86.8210   -8.0140 H       2  LIG2        0.0257
     40    H      -67.3880  -86.3940   -8.8000 H       2  LIG2        0.0257
     41    H      -67.3560  -87.2250   -7.2670 H       2  LIG2        0.0257
     42    H      -66.0070  -88.6260   -8.3430 H       2  LIG2        0.2102
@<TRIPOS>BOND
     1    22     7    1
     2    26    11    1
     3    27    11    1
     4    21     7    1
     5     7    11    1
     6     7     4    1
     7    11     9    1
     8    28    12    1
     9    30    12    1
    10    12     3    1
    11    12    29    1
    12    18     4    1
    13     4     3    1
    14     4     2    1
    15    31    13    1
    16     1     9    1
    17     1    42    1
    18     9    16    1
    19     9     6    1
    20     3    13    1
    21     3     2    1
    22    40    16    1
    23    20     6    1
    24    19     5    1
    25    13    32    1
    26    13    33    1
    27    16    39    1
    28    16    41    1
    29     6     5    1
    30     6    10    1
    31     2     5    1
    32     2    17    1
    33     5     8    1
    34    24    10    1
    35    10    25    1
    36    10    14    1
    37    23     8    1
    38     8    15    1
    39     8    14    1
    40    38    15    1
    41    15    36    1
    42    15    37    1
    43    14    34    1
    44    14    35    1
@<TRIPOS>MOLECULE
11996452_run_3.pdb
 42 44 0 0 0
SMALL
GASTEIGER

@<TRIPOS>ATOM
      1    O      -72.7850  -86.1590   -6.9290 O.3     2  LIG2       -0.3886
      2    C      -69.3770  -89.0210   -6.7530 C.3     2  LIG2       -0.0289
      3    C      -68.6380  -89.8610   -7.7880 C.3     2  LIG2       -0.0284
      4    C      -70.0900  -89.5150   -8.0220 C.3     2  LIG2       -0.0319
      5    C      -69.1570  -87.4900   -6.5800 C.3     2  LIG2       -0.0294
      6    C      -70.4650  -86.6400   -6.4480 C.3     2  LIG2       -0.0090
      7    C      -70.5900  -88.4420   -9.0070 C.3     2  LIG2       -0.0468
      8    C      -68.3150  -87.1170   -5.3350 C.3     2  LIG2       -0.0404
      9    C      -71.8290  -87.2070   -6.9920 C.3     2  LIG2        0.0664
     10    C      -70.4820  -86.1110   -4.9910 C.3     2  LIG2       -0.0471
     11    C      -71.8040  -87.6330   -8.4980 C.3     2  LIG2       -0.0237
     12    C      -67.5240  -89.2680   -8.6830 C.3     2  LIG2       -0.0593
     13    C      -68.3250  -91.3140   -7.3850 C.3     2  LIG2       -0.0593
     14    C      -69.3520  -86.8240   -4.2490 C.3     2  LIG2       -0.0498
     15    C      -67.2270  -88.1260   -4.9160 C.3     2  LIG2       -0.0621
     16    C      -72.4760  -88.3180   -6.1180 C.3     2  LIG2       -0.0358
     17    H      -69.6580  -89.5020   -5.8160 H       2  LIG2        0.0312
     18    H      -70.7970  -90.3420   -7.9430 H       2  LIG2        0.0309
     19    H      -68.6120  -87.1160   -7.4440 H       2  LIG2        0.0310
     20    H      -70.2750  -85.7560   -7.0640 H       2  LIG2        0.0331
     21    H      -69.8000  -87.7400   -9.2650 H       2  LIG2        0.0269
     22    H      -70.8540  -88.9240   -9.9490 H       2  LIG2        0.0269
     23    H      -67.7960  -86.1810   -5.5530 H       2  LIG2        0.0301
     24    H      -70.2990  -85.0350   -4.9880 H       2  LIG2        0.0269
     25    H      -71.4340  -86.2520   -4.4810 H       2  LIG2        0.0269
     26    H      -71.8550  -86.7440   -9.1320 H       2  LIG2        0.0293
     27    H      -72.7090  -88.1990   -8.7280 H       2  LIG2        0.0293
     28    H      -67.3930  -89.8740   -9.5800 H       2  LIG2        0.0235
     29    H      -66.5720  -89.2560   -8.1530 H       2  LIG2        0.0235
     30    H      -67.7090  -88.2520   -9.0230 H       2  LIG2        0.0235
     31    H      -68.2220  -91.9510   -8.2630 H       2  LIG2        0.0235
     32    H      -69.1080  -91.7450   -6.7610 H       2  LIG2        0.0235
     33    H      -67.3940  -91.3690   -6.8190 H       2  LIG2        0.0235
     34    H      -69.7140  -87.7510   -3.8020 H       2  LIG2        0.0268
     35    H      -68.9450  -86.2070   -3.4480 H       2  LIG2        0.0268
     36    H      -67.6490  -89.0790   -4.5960 H       2  LIG2        0.0233
     37    H      -66.6380  -87.7360   -4.0850 H       2  LIG2        0.0233
     38    H      -66.5390  -88.3240   -5.7390 H       2  LIG2        0.0233
     39    H      -71.8960  -89.2350   -6.0800 H       2  LIG2        0.0257
     40    H      -73.4600  -88.6010   -6.4970 H       2  LIG2        0.0257
     41    H      -72.6270  -88.0030   -5.0860 H       2  LIG2        0.0257
     42    H      -72.4610  -85.4210   -7.4500 H       2  LIG2        0.2102
@<TRIPOS>BOND
     1    22     7    1
     2    28    12    1
     3    21     7    1
     4    26    11    1
     5    30    12    1
     6     7    11    1
     7     7     4    1
     8    27    11    1
     9    12    29    1
    10    12     3    1
    11    11     9    1
    12    31    13    1
    13     4    18    1
    14     4     3    1
    15     4     2    1
    16     3    13    1
    17     3     2    1
    18    42     1    1
    19    19     5    1
    20    13    33    1
    21    13    32    1
    22    20     6    1
    23     9     1    1
    24     9     6    1
    25     9    16    1
    26     2     5    1
    27     2    17    1
    28     5     6    1
    29     5     8    1
    30    40    16    1
    31     6    10    1
    32    16    39    1
    33    16    41    1
    34    38    15    1
    35    23     8    1
    36     8    15    1
    37     8    14    1
    38    10    24    1
    39    10    25    1
    40    10    14    1
    41    15    36    1
    42    15    37    1
    43    14    34    1
    44    14    35    1
@<TRIPOS>MOLECULE
11996452_run_12.pdb
 42 44 0 0 0
SMALL
GASTEIGER

@<TRIPOS>ATOM
      1    O      -61.1300  -82.0430  -14.9290 O.3     2  LIG2       -0.3886
      2    C      -63.2460  -78.5320  -13.1880 C.3     2  LIG2       -0.0289
      3    C      -64.1300  -78.3220  -11.9650 C.3     2  LIG2       -0.0284
      4    C      -64.1020  -79.6790  -12.6270 C.3     2  LIG2       -0.0319
      5    C      -61.6970  -78.6630  -13.1110 C.3     2  LIG2       -0.0294
      6    C      -61.0840  -79.8330  -13.9520 C.3     2  LIG2       -0.0090
      7    C      -63.3530  -80.9090  -12.0800 C.3     2  LIG2       -0.0468
      8    C      -60.9390  -77.3970  -13.5820 C.3     2  LIG2       -0.0404
      9    C      -61.9820  -81.0580  -14.3640 C.3     2  LIG2        0.0664
     10    C      -60.2870  -79.1590  -15.0970 C.3     2  LIG2       -0.0471
     11    C      -62.6890  -81.7800  -13.1680 C.3     2  LIG2       -0.0237
     12    C      -63.5390  -78.1140  -10.5500 C.3     2  LIG2       -0.0593
     13    C      -65.3940  -77.4680  -12.1790 C.3     2  LIG2       -0.0593
     14    C      -60.6250  -77.6690  -15.0540 C.3     2  LIG2       -0.0498
     15    C      -61.6340  -76.0450  -13.3210 C.3     2  LIG2       -0.0621
     16    C      -62.9930  -80.7770  -15.5110 C.3     2  LIG2       -0.0358
     17    H      -63.5730  -78.0950  -14.1320 H       2  LIG2        0.0312
     18    H      -65.0090  -79.9700  -13.1590 H       2  LIG2        0.0309
     19    H      -61.4120  -78.8250  -12.0730 H       2  LIG2        0.0310
     20    H      -60.3220  -80.2640  -13.2970 H       2  LIG2        0.0331
     21    H      -62.5880  -80.6220  -11.3620 H       2  LIG2        0.0269
     22    H      -64.0530  -81.5230  -11.5110 H       2  LIG2        0.0269
     23    H      -59.9880  -77.3600  -13.0460 H       2  LIG2        0.0301
     24    H      -59.2170  -79.2960  -14.9320 H       2  LIG2        0.0269
     25    H      -60.4910  -79.5760  -16.0830 H       2  LIG2        0.0269
     26    H      -61.9680  -82.4120  -12.6440 H       2  LIG2        0.0293
     27    H      -63.4410  -82.4690  -13.5570 H       2  LIG2        0.0293
     28    H      -64.2780  -78.3610   -9.7870 H       2  LIG2        0.0235
     29    H      -63.2520  -77.0730  -10.4040 H       2  LIG2        0.0235
     30    H      -62.6610  -78.7160  -10.3330 H       2  LIG2        0.0235
     31    H      -66.1650  -77.7190  -11.4500 H       2  LIG2        0.0235
     32    H      -65.8250  -77.6140  -13.1700 H       2  LIG2        0.0235
     33    H      -65.1690  -76.4060  -12.0770 H       2  LIG2        0.0235
     34    H      -61.4940  -77.4560  -15.6790 H       2  LIG2        0.0268
     35    H      -59.7980  -77.0580  -15.4170 H       2  LIG2        0.0268
     36    H      -62.5640  -75.9450  -13.8810 H       2  LIG2        0.0233
     37    H      -60.9880  -75.2160  -13.6110 H       2  LIG2        0.0233
     38    H      -61.8670  -75.9220  -12.2620 H       2  LIG2        0.0233
     39    H      -63.7660  -80.0630  -15.2450 H       2  LIG2        0.0257
     40    H      -63.5170  -81.6870  -15.8120 H       2  LIG2        0.0257
     41    H      -62.5110  -80.3930  -16.4090 H       2  LIG2        0.0257
     42    H      -61.6610  -82.8110  -15.1530 H       2  LIG2        0.2102
@<TRIPOS>BOND
     1    41    16    1
     2    25    10    1
     3    40    16    1
     4    34    14    1
     5    16    39    1
     6    16     9    1
     7    35    14    1
     8    42     1    1
     9    10    14    1
    10    10    24    1
    11    10     6    1
    12    14     8    1
    13     1     9    1
    14     9     6    1
    15     9    11    1
    16    17     2    1
    17     6    20    1
    18     6     5    1
    19    36    15    1
    20    37    15    1
    21     8    15    1
    22     8     5    1
    23     8    23    1
    24    27    11    1
    25    15    38    1
    26     2     5    1
    27     2     4    1
    28     2     3    1
    29    32    13    1
    30    11    26    1
    31    11     7    1
    32    18     4    1
    33     5    19    1
    34     4     7    1
    35     4     3    1
    36    13    33    1
    37    13     3    1
    38    13    31    1
    39     7    22    1
    40     7    21    1
    41     3    12    1
    42    12    29    1
    43    12    30    1
    44    12    28    1
@<TRIPOS>MOLECULE
11996452_run_1.pdb
 42 44 0 0 0
SMALL
GASTEIGER

@<TRIPOS>ATOM
      1    O      -72.0390  -90.8710  -11.4290 O.3     2  LIG2       -0.3886
      2    C      -70.8280  -88.1670   -8.1040 C.3     2  LIG2       -0.0289
      3    C      -71.0910  -88.1420   -6.6030 C.3     2  LIG2       -0.0284
      4    C      -72.1170  -88.7660   -7.5190 C.3     2  LIG2       -0.0319
      5    C      -69.8060  -89.1300   -8.7760 C.3     2  LIG2       -0.0294
      6    C      -70.3220  -89.8530  -10.0650 C.3     2  LIG2       -0.0090
      7    C      -72.3280  -90.2810   -7.6980 C.3     2  LIG2       -0.0468
      8    C      -68.4890  -88.4400   -9.2100 C.3     2  LIG2       -0.0404
      9    C      -71.8680  -90.0100  -10.3130 C.3     2  LIG2        0.0664
     10    C      -69.5020  -89.2630  -11.2400 C.3     2  LIG2       -0.0471
     11    C      -72.6480  -90.7070   -9.1480 C.3     2  LIG2       -0.0237
     12    C      -70.2770  -89.0070   -5.6120 C.3     2  LIG2       -0.0593
     13    C      -71.4410  -86.7690   -5.9980 C.3     2  LIG2       -0.0593
     14    C      -68.7150  -88.0790  -10.6780 C.3     2  LIG2       -0.0498
     15    C      -68.0110  -87.2640   -8.3340 C.3     2  LIG2       -0.0621
     16    C      -72.5980  -88.7130  -10.7630 C.3     2  LIG2       -0.0358
     17    H      -70.9280  -87.2300   -8.6530 H       2  LIG2        0.0312
     18    H      -73.0530  -88.2170   -7.6330 H       2  LIG2        0.0309
     19    H      -69.5290  -89.9010   -8.0590 H       2  LIG2        0.0310
     20    H      -69.9600  -90.8800   -9.9600 H       2  LIG2        0.0331
     21    H      -71.4620  -90.8470   -7.3630 H       2  LIG2        0.0269
     22    H      -73.1420  -90.6030   -7.0460 H       2  LIG2        0.0269
     23    H      -67.6950  -89.1890   -9.1760 H       2  LIG2        0.0301
     24    H      -68.8080  -90.0150  -11.6200 H       2  LIG2        0.0269
     25    H      -70.1080  -88.9590  -12.0930 H       2  LIG2        0.0269
     26    H      -72.4750  -91.7860   -9.1860 H       2  LIG2        0.0293
     27    H      -73.7210  -90.5860   -9.3090 H       2  LIG2        0.0293
     28    H      -70.8330  -89.1490   -4.6840 H       2  LIG2        0.0235
     29    H      -69.3360  -88.5190   -5.3590 H       2  LIG2        0.0235
     30    H      -70.0280  -90.0000   -5.9760 H       2  LIG2        0.0235
     31    H      -72.0270  -86.8810   -5.0860 H       2  LIG2        0.0235
     32    H      -72.0220  -86.1540   -6.6850 H       2  LIG2        0.0235
     33    H      -70.5370  -86.2110   -5.7500 H       2  LIG2        0.0235
     34    H      -69.2970  -87.1590  -10.7640 H       2  LIG2        0.0268
     35    H      -67.7780  -87.9280  -11.2140 H       2  LIG2        0.0268
     36    H      -68.7010  -86.4200   -8.3640 H       2  LIG2        0.0233
     37    H      -67.0390  -86.9020   -8.6700 H       2  LIG2        0.0233
     38    H      -67.9020  -87.5700   -7.2930 H       2  LIG2        0.0233
     39    H      -72.6090  -87.9350  -10.0050 H       2  LIG2        0.0257
     40    H      -73.6440  -88.9080  -11.0070 H       2  LIG2        0.0257
     41    H      -72.1550  -88.2720  -11.6540 H       2  LIG2        0.0257
     42    H      -71.6320  -91.7160  -11.2250 H       2  LIG2        0.2102
@<TRIPOS>BOND
     1    25    10    1
     2    41    16    1
     3    24    10    1
     4     1    42    1
     5     1     9    1
     6    10    14    1
     7    10     6    1
     8    35    14    1
     9    40    16    1
    10    34    14    1
    11    16     9    1
    12    16    39    1
    13    14     8    1
    14     9     6    1
    15     9    11    1
    16     6    20    1
    17     6     5    1
    18    27    11    1
    19     8    23    1
    20     8     5    1
    21     8    15    1
    22    26    11    1
    23    11     7    1
    24     5     2    1
    25     5    19    1
    26    37    15    1
    27    17     2    1
    28    36    15    1
    29    15    38    1
    30     2     4    1
    31     2     3    1
    32     7     4    1
    33     7    21    1
    34     7    22    1
    35    18     4    1
    36     4     3    1
    37    32    13    1
    38     3    13    1
    39     3    12    1
    40    13    33    1
    41    13    31    1
    42    30    12    1
    43    12    29    1
    44    12    28    1
@<TRIPOS>MOLECULE
11996452_run_16.pdb
 42 44 0 0 0
SMALL
GASTEIGER

@<TRIPOS>ATOM
      1    O      -66.7890  -88.0380   -9.0790 O.3     2  LIG2       -0.3886
      2    C      -70.3780  -89.3420   -6.7870 C.3     2  LIG2       -0.0289
      3    C      -70.8080  -90.6510   -6.1370 C.3     2  LIG2       -0.0284
      4    C      -69.8970  -90.6920   -7.3400 C.3     2  LIG2       -0.0319
      5    C      -69.3230  -88.3830   -6.1620 C.3     2  LIG2       -0.0294
      6    C      -68.2410  -87.8440   -7.1560 C.3     2  LIG2       -0.0090
      7    C      -68.3820  -90.9710   -7.2870 C.3     2  LIG2       -0.0468
      8    C      -69.9360  -87.1140   -5.5180 C.3     2  LIG2       -0.0404
      9    C      -67.9350  -88.6290   -8.4860 C.3     2  LIG2        0.0664
     10    C      -68.5230  -86.3280   -7.3110 C.3     2  LIG2       -0.0471
     11    C      -67.5500  -90.1330   -8.2830 C.3     2  LIG2       -0.0237
     12    C      -70.3010  -91.0790   -4.7390 C.3     2  LIG2       -0.0593
     13    C      -72.2730  -91.0710   -6.3580 C.3     2  LIG2       -0.0593
     14    C      -69.8590  -86.0550   -6.6200 C.3     2  LIG2       -0.0498
     15    C      -71.3350  -87.2720   -4.8890 C.3     2  LIG2       -0.0621
     16    C      -69.0130  -88.4840   -9.5980 C.3     2  LIG2       -0.0358
     17    H      -71.1170  -88.8040   -7.3830 H       2  LIG2        0.0312
     18    H      -70.3390  -91.0740   -8.2620 H       2  LIG2        0.0309
     19    H      -68.8010  -88.9100   -5.3660 H       2  LIG2        0.0310
     20    H      -67.3060  -87.8980   -6.5900 H       2  LIG2        0.0331
     21    H      -67.9820  -90.8060   -6.2890 H       2  LIG2        0.0269
     22    H      -68.2120  -92.0300   -7.4850 H       2  LIG2        0.0269
     23    H      -69.2720  -86.7960   -4.7120 H       2  LIG2        0.0301
     24    H      -67.7350  -85.7550   -6.8210 H       2  LIG2        0.0269
     25    H      -68.5420  -85.9860   -8.3450 H       2  LIG2        0.0269
     26    H      -66.5160  -90.2020   -7.9380 H       2  LIG2        0.0293
     27    H      -67.5630  -90.6420   -9.2480 H       2  LIG2        0.0293
     28    H      -70.3940  -92.1590   -4.6140 H       2  LIG2        0.0235
     29    H      -70.8920  -90.6070   -3.9550 H       2  LIG2        0.0235
     30    H      -69.2610  -90.8350   -4.5400 H       2  LIG2        0.0235
     31    H      -72.3890  -92.1510   -6.2730 H       2  LIG2        0.0235
     32    H      -72.6390  -90.7810   -7.3450 H       2  LIG2        0.0235
     33    H      -72.9280  -90.6030   -5.6210 H       2  LIG2        0.0235
     34    H      -70.6840  -86.1710   -7.3240 H       2  LIG2        0.0268
     35    H      -69.9050  -85.0420   -6.2190 H       2  LIG2        0.0268
     36    H      -72.0970  -87.5110   -5.6310 H       2  LIG2        0.0233
     37    H      -71.6420  -86.3510   -4.3920 H       2  LIG2        0.0233
     38    H      -71.3400  -88.0640   -4.1380 H       2  LIG2        0.0233
     39    H      -69.9700  -88.9250   -9.3380 H       2  LIG2        0.0257
     40    H      -68.6990  -88.9720  -10.5230 H       2  LIG2        0.0257
     41    H      -69.2100  -87.4440   -9.8550 H       2  LIG2        0.0257
     42    H      -66.0830  -88.0280   -8.4290 H       2  LIG2        0.2102
@<TRIPOS>BOND
     1    40    16    1
     2    41    16    1
     3    16    39    1
     4    16     9    1
     5    27    11    1
     6     1     9    1
     7     1    42    1
     8     9    11    1
     9     9     6    1
    10    25    10    1
    11    11    26    1
    12    11     7    1
    13    18     4    1
    14    22     7    1
    15    17     2    1
    16    32    13    1
    17     4     7    1
    18     4     2    1
    19     4     3    1
    20    34    14    1
    21    10     6    1
    22    10    24    1
    23    10    14    1
    24     7    21    1
    25     6    20    1
    26     6     5    1
    27     2     5    1
    28     2     3    1
    29    14    35    1
    30    14     8    1
    31    13    31    1
    32    13     3    1
    33    13    33    1
    34     5     8    1
    35     5    19    1
    36     3    12    1
    37    36    15    1
    38     8    15    1
    39     8    23    1
    40    15    37    1
    41    15    38    1
    42    12    28    1
    43    12    30    1
    44    12    29    1
