@<TRIPOS>MOLECULE
11996452_1_run_9.pdb
 42 44 0 0 0
SMALL
GASTEIGER

@<TRIPOS>ATOM
      1    O      -59.8900  -77.4490  -13.1050 O.3     2  LIG2       -0.3886
      2    C      -61.9120  -80.2710  -12.6850 C.3     2  LIG2       -0.0289
      3    C      -62.5630  -80.9900  -13.8560 C.3     2  LIG2       -0.0284
      4    C      -61.1430  -80.4880  -14.0070 C.3     2  LIG2       -0.0319
      5    C      -62.3300  -78.9180  -12.0060 C.3     2  LIG2       -0.0294
      6    C      -62.2730  -77.5210  -12.6780 C.3     2  LIG2       -0.0090
      7    C      -60.7220  -79.4240  -15.0480 C.3     2  LIG2       -0.0468
      8    C      -63.7260  -78.9110  -11.3280 C.3     2  LIG2       -0.0404
      9    C      -61.1530  -77.1960  -13.7030 C.3     2  LIG2        0.0664
     10    C      -63.7250  -77.1510  -13.0540 C.3     2  LIG2       -0.0471
     11    C      -61.2530  -77.9820  -15.0280 C.3     2  LIG2       -0.0237
     12    C      -62.7270  -82.5180  -13.7250 C.3     2  LIG2       -0.0593
     13    C      -63.7200  -80.3780  -14.6640 C.3     2  LIG2       -0.0593
     14    C      -64.6400  -78.0940  -12.2570 C.3     2  LIG2       -0.0498
     15    C      -64.3060  -80.2800  -10.9200 C.3     2  LIG2       -0.0621
     16    C      -61.1270  -75.6800  -14.0180 C.3     2  LIG2       -0.0358
     17    H      -61.6080  -80.9420  -11.8780 H       2  LIG2        0.0312
     18    H      -60.3290  -81.2050  -13.8960 H       2  LIG2        0.0309
     19    H      -61.6010  -78.8520  -11.1950 H       2  LIG2        0.0310
     20    H      -62.0580  -76.8430  -11.8460 H       2  LIG2        0.0331
     21    H      -59.6310  -79.3720  -15.0250 H       2  LIG2        0.0269
     22    H      -60.9370  -79.8400  -16.0330 H       2  LIG2        0.0269
     23    H      -63.6320  -78.3420  -10.4000 H       2  LIG2        0.0301
     24    H      -63.9300  -76.1160  -12.7750 H       2  LIG2        0.0269
     25    H      -63.9230  -77.2100  -14.1220 H       2  LIG2        0.0269
     26    H      -60.6800  -77.4500  -15.7900 H       2  LIG2        0.0293
     27    H      -62.2630  -77.9340  -15.4290 H       2  LIG2        0.0293
     28    H      -62.7660  -82.9930  -14.7060 H       2  LIG2        0.0235
     29    H      -63.6460  -82.7700  -13.1960 H       2  LIG2        0.0235
     30    H      -61.9030  -82.9770  -13.1780 H       2  LIG2        0.0235
     31    H      -63.7150  -80.7510  -15.6890 H       2  LIG2        0.0235
     32    H      -63.6840  -79.3010  -14.7200 H       2  LIG2        0.0235
     33    H      -64.6830  -80.6410  -14.2260 H       2  LIG2        0.0235
     34    H      -65.2110  -78.7380  -12.9250 H       2  LIG2        0.0268
     35    H      -65.3690  -77.5250  -11.6790 H       2  LIG2        0.0268
     36    H      -64.5200  -80.9080  -11.7830 H       2  LIG2        0.0233
     37    H      -65.2400  -80.1580  -10.3710 H       2  LIG2        0.0233
     38    H      -63.6160  -80.8230  -10.2730 H       2  LIG2        0.0233
     39    H      -62.0380  -75.3650  -14.5290 H       2  LIG2        0.0257
     40    H      -60.2890  -75.4090  -14.6640 H       2  LIG2        0.0257
     41    H      -61.0390  -75.0790  -13.1120 H       2  LIG2        0.0257
     42    H      -59.8900  -78.3440  -12.7610 H       2  LIG2        0.2102
@<TRIPOS>BOND
     1    22     7    1
     2    26    11    1
     3    31    13    1
     4    27    11    1
     5     7    11    1
     6     7    21    1
     7     7     4    1
     8    11     9    1
     9    32    13    1
    10    28    12    1
    11    40    16    1
    12    13    33    1
    13    13     3    1
    14    39    16    1
    15    25    10    1
    16    16     9    1
    17    16    41    1
    18     4    18    1
    19     4     3    1
    20     4     2    1
    21     3    12    1
    22     3     2    1
    23    12    29    1
    24    12    30    1
    25     9     1    1
    26     9     6    1
    27     1    42    1
    28    10    24    1
    29    10     6    1
    30    10    14    1
    31    34    14    1
    32     2     5    1
    33     2    17    1
    34     6     5    1
    35     6    20    1
    36    14    35    1
    37    14     8    1
    38     5     8    1
    39     5    19    1
    40    36    15    1
    41     8    15    1
    42     8    23    1
    43    15    37    1
    44    15    38    1
@<TRIPOS>MOLECULE
11996452_1_run_11.pdb
 42 44 0 0 0
SMALL
GASTEIGER

@<TRIPOS>ATOM
      1    O      -64.4200  -81.2740  -15.7060 O.3     2  LIG2       -0.3886
      2    C      -62.1740  -78.8260  -14.6100 C.3     2  LIG2       -0.0289
      3    C      -60.8000  -79.1700  -14.0540 C.3     2  LIG2       -0.0284
      4    C      -61.3160  -79.9400  -15.2520 C.3     2  LIG2       -0.0319
      5    C      -63.5760  -78.9510  -13.9130 C.3     2  LIG2       -0.0294
      6    C      -64.2600  -80.2810  -13.5010 C.3     2  LIG2       -0.0090
      7    C      -61.5720  -81.4660  -15.2380 C.3     2  LIG2       -0.0468
      8    C      -63.7820  -78.0620  -12.6570 C.3     2  LIG2       -0.0404
      9    C      -64.0580  -81.5580  -14.3620 C.3     2  LIG2        0.0664
     10    C      -64.0950  -80.4080  -11.9710 C.3     2  LIG2       -0.0471
     11    C      -62.6230  -82.1260  -14.3320 C.3     2  LIG2       -0.0237
     12    C      -59.6680  -78.1620  -14.3380 C.3     2  LIG2       -0.0593
     13    C      -60.6060  -79.8490  -12.6890 C.3     2  LIG2       -0.0593
     14    C      -63.7090  -79.0150  -11.4520 C.3     2  LIG2       -0.0498
     15    C      -62.8780  -76.8190  -12.5320 C.3     2  LIG2       -0.0621
     16    C      -65.0470  -82.6670  -13.9290 C.3     2  LIG2       -0.0358
     17    H      -62.1920  -77.8950  -15.1790 H       2  LIG2        0.0312
     18    H      -60.9510  -79.6590  -16.2410 H       2  LIG2        0.0309
     19    H      -64.2340  -78.5420  -14.6830 H       2  LIG2        0.0310
     20    H      -65.3280  -80.0670  -13.6140 H       2  LIG2        0.0331
     21    H      -61.7930  -81.7590  -16.2670 H       2  LIG2        0.0269
     22    H      -60.6140  -81.9470  -15.0360 H       2  LIG2        0.0269
     23    H      -64.8050  -77.6810  -12.6950 H       2  LIG2        0.0301
     24    H      -65.0390  -80.7210  -11.5200 H       2  LIG2        0.0269
     25    H      -63.3670  -81.1610  -11.6760 H       2  LIG2        0.0269
     26    H      -62.6590  -83.1720  -14.6450 H       2  LIG2        0.0293
     27    H      -62.2610  -82.2060  -13.3110 H       2  LIG2        0.0293
     28    H      -58.6950  -78.6530  -14.3200 H       2  LIG2        0.0235
     29    H      -59.6540  -77.3670  -13.5920 H       2  LIG2        0.0235
     30    H      -59.7710  -77.6880  -15.3140 H       2  LIG2        0.0235
     31    H      -59.6910  -80.4420  -12.6790 H       2  LIG2        0.0235
     32    H      -61.4140  -80.5110  -12.4160 H       2  LIG2        0.0235
     33    H      -60.5210  -79.1090  -11.8930 H       2  LIG2        0.0235
     34    H      -62.7140  -79.0270  -11.0100 H       2  LIG2        0.0268
     35    H      -64.3930  -78.6940  -10.6650 H       2  LIG2        0.0268
     36    H      -61.8300  -77.0860  -12.4030 H       2  LIG2        0.0233
     37    H      -63.1650  -76.2160  -11.6710 H       2  LIG2        0.0233
     38    H      -62.9570  -76.1840  -13.4150 H       2  LIG2        0.0233
     39    H      -64.8410  -83.0100  -12.9140 H       2  LIG2        0.0257
     40    H      -64.9920  -83.5430  -14.5790 H       2  LIG2        0.0257
     41    H      -66.0810  -82.3200  -13.9500 H       2  LIG2        0.0257
     42    H      -63.9180  -80.5110  -16.0010 H       2  LIG2        0.2102
@<TRIPOS>BOND
     1    21     7    1
     2    18     4    1
     3    42     1    1
     4     1     9    1
     5    30    12    1
     6     4     7    1
     7     4     2    1
     8     4     3    1
     9     7    22    1
    10     7    11    1
    11    17     2    1
    12    19     5    1
    13    26    11    1
    14     2     3    1
    15     2     5    1
    16    40    16    1
    17     9    11    1
    18     9    16    1
    19     9     6    1
    20    12    28    1
    21    12     3    1
    22    12    29    1
    23    11    27    1
    24     3    13    1
    25    41    16    1
    26    16    39    1
    27     5     6    1
    28     5     8    1
    29    20     6    1
    30     6    10    1
    31    38    15    1
    32    23     8    1
    33    13    31    1
    34    13    32    1
    35    13    33    1
    36     8    15    1
    37     8    14    1
    38    15    36    1
    39    15    37    1
    40    10    25    1
    41    10    24    1
    42    10    14    1
    43    14    34    1
    44    14    35    1
@<TRIPOS>MOLECULE
11996452_1_run_19.pdb
 42 44 0 0 0
SMALL
GASTEIGER

@<TRIPOS>ATOM
      1    O      -71.2210  -88.7410  -11.9390 O.3     2  LIG2       -0.3886
      2    C      -68.5530  -89.0010   -9.6930 C.3     2  LIG2       -0.0289
      3    C      -68.3880  -90.1870   -8.7550 C.3     2  LIG2       -0.0284
      4    C      -68.8490  -90.4380  -10.1740 C.3     2  LIG2       -0.0319
      5    C      -69.5400  -87.7850   -9.5760 C.3     2  LIG2       -0.0294
      6    C      -71.0850  -87.8690   -9.6820 C.3     2  LIG2       -0.0090
      7    C      -70.2210  -91.0600  -10.5280 C.3     2  LIG2       -0.0468
      8    C      -69.3350  -86.8710   -8.3390 C.3     2  LIG2       -0.0404
      9    C      -71.7440  -88.9090  -10.6290 C.3     2  LIG2        0.0664
     10    C      -71.6350  -87.7520   -8.2440 C.3     2  LIG2       -0.0471
     11    C      -71.5560  -90.3780  -10.1920 C.3     2  LIG2       -0.0237
     12    C      -66.9430  -90.6150   -8.4290 C.3     2  LIG2       -0.0593
     13    C      -69.3200  -90.4290   -7.5550 C.3     2  LIG2       -0.0593
     14    C      -70.4920  -87.1970   -7.3800 C.3     2  LIG2       -0.0498
     15    C      -67.9430  -86.9000   -7.6780 C.3     2  LIG2       -0.0621
     16    C      -73.2580  -88.6210  -10.7850 C.3     2  LIG2       -0.0358
     17    H      -67.6040  -88.5970  -10.0530 H       2  LIG2        0.0312
     18    H      -68.1140  -90.7880  -10.9000 H       2  LIG2        0.0309
     19    H      -69.2470  -87.1890  -10.4440 H       2  LIG2        0.0310
     20    H      -71.3660  -86.9090  -10.1280 H       2  LIG2        0.0331
     21    H      -70.2130  -91.2560  -11.6020 H       2  LIG2        0.0269
     22    H      -70.2410  -92.0570  -10.0870 H       2  LIG2        0.0269
     23    H      -69.4830  -85.8400   -8.6710 H       2  LIG2        0.0301
     24    H      -72.4810  -87.0620   -8.2240 H       2  LIG2        0.0269
     25    H      -72.0150  -88.6910   -7.8480 H       2  LIG2        0.0269
     26    H      -72.3230  -90.9840  -10.6790 H       2  LIG2        0.0293
     27    H      -71.8030  -90.5010   -9.1400 H       2  LIG2        0.0293
     28    H      -66.9010  -91.6700   -8.1540 H       2  LIG2        0.0235
     29    H      -66.5400  -90.0370   -7.5980 H       2  LIG2        0.0235
     30    H      -66.2700  -90.4770   -9.2760 H       2  LIG2        0.0235
     31    H      -69.3860  -91.4940   -7.3260 H       2  LIG2        0.0235
     32    H      -70.3280  -90.0770   -7.7130 H       2  LIG2        0.0235
     33    H      -68.9450  -89.9280   -6.6630 H       2  LIG2        0.0235
     34    H      -70.1930  -87.9190   -6.6210 H       2  LIG2        0.0268
     35    H      -70.8140  -86.3030   -6.8440 H       2  LIG2        0.0268
     36    H      -67.7200  -87.8690   -7.2340 H       2  LIG2        0.0233
     37    H      -67.8750  -86.1580   -6.8830 H       2  LIG2        0.0233
     38    H      -67.1590  -86.6740   -8.4010 H       2  LIG2        0.0233
     39    H      -73.7890  -88.7630   -9.8420 H       2  LIG2        0.0257
     40    H      -73.7280  -89.2790  -11.5180 H       2  LIG2        0.0257
     41    H      -73.4440  -87.5960  -11.1100 H       2  LIG2        0.0257
     42    H      -71.1610  -87.8020  -12.1230 H       2  LIG2        0.2102
@<TRIPOS>BOND
     1    42     1    1
     2     1     9    1
     3    21     7    1
     4    40    16    1
     5    41    16    1
     6    18     4    1
     7    16     9    1
     8    16    39    1
     9    26    11    1
    10     9    11    1
    11     9     6    1
    12     7    11    1
    13     7     4    1
    14     7    22    1
    15    19     5    1
    16    11    27    1
    17     4     2    1
    18     4     3    1
    19    20     6    1
    20    17     2    1
    21     2     5    1
    22     2     3    1
    23     6     5    1
    24     6    10    1
    25     5     8    1
    26    30    12    1
    27     3    12    1
    28     3    13    1
    29    23     8    1
    30    12    28    1
    31    12    29    1
    32    38    15    1
    33     8    15    1
    34     8    14    1
    35    10    24    1
    36    10    25    1
    37    10    14    1
    38    32    13    1
    39    15    36    1
    40    15    37    1
    41    13    31    1
    42    13    33    1
    43    14    35    1
    44    14    34    1
@<TRIPOS>MOLECULE
11996452_1_run_6.pdb
 42 44 0 0 0
SMALL
GASTEIGER

@<TRIPOS>ATOM
      1    O      -67.3920  -87.6590  -10.3620 O.3     2  LIG2       -0.3886
      2    C      -69.0400  -88.1000   -7.3080 C.3     2  LIG2       -0.0289
      3    C      -69.1740  -89.4610   -6.6430 C.3     2  LIG2       -0.0284
      4    C      -67.8640  -89.1020   -7.3090 C.3     2  LIG2       -0.0319
      5    C      -69.8340  -87.5210   -8.5330 C.3     2  LIG2       -0.0294
      6    C      -69.7540  -88.0530   -9.9880 C.3     2  LIG2       -0.0090
      7    C      -67.2770  -89.8800   -8.5120 C.3     2  LIG2       -0.0468
      8    C      -71.3610  -87.3470   -8.3210 C.3     2  LIG2       -0.0404
      9    C      -68.4170  -88.6270  -10.5330 C.3     2  LIG2        0.0664
     10    C      -71.0420  -88.8680  -10.2330 C.3     2  LIG2       -0.0471
     11    C      -67.9780  -89.9540   -9.8770 C.3     2  LIG2       -0.0237
     12    C      -69.1630  -89.4810   -5.1010 C.3     2  LIG2       -0.0593
     13    C      -70.0810  -90.5700   -7.2030 C.3     2  LIG2       -0.0593
     14    C      -72.0280  -88.4770   -9.1220 C.3     2  LIG2       -0.0498
     15    C      -71.8500  -87.2350   -6.8630 C.3     2  LIG2       -0.0621
     16    C      -68.4970  -88.8270  -12.0670 C.3     2  LIG2       -0.0358
     17    H      -68.9240  -87.2790   -6.5970 H       2  LIG2        0.0312
     18    H      -67.0390  -88.7680   -6.6780 H       2  LIG2        0.0309
     19    H      -69.4210  -86.5120   -8.5970 H       2  LIG2        0.0310
     20    H      -69.9120  -87.1590  -10.5990 H       2  LIG2        0.0331
     21    H      -66.2700  -89.4920   -8.6790 H       2  LIG2        0.0269
     22    H      -67.1050  -90.9020   -8.1750 H       2  LIG2        0.0269
     23    H      -71.6490  -86.4090   -8.8010 H       2  LIG2        0.0301
     24    H      -71.4640  -88.6130  -11.2070 H       2  LIG2        0.0269
     25    H      -70.8760  -89.9430  -10.2600 H       2  LIG2        0.0269
     26    H      -67.2670  -90.4490  -10.5420 H       2  LIG2        0.0293
     27    H      -68.8000  -90.6630   -9.8550 H       2  LIG2        0.0293
     28    H      -68.8190  -90.4450   -4.7250 H       2  LIG2        0.0235
     29    H      -70.1600  -89.3030   -4.6980 H       2  LIG2        0.0235
     30    H      -68.5050  -88.7190   -4.6820 H       2  LIG2        0.0235
     31    H      -69.6950  -91.5550   -6.9360 H       2  LIG2        0.0235
     32    H      -70.1750  -90.5480   -8.2780 H       2  LIG2        0.0235
     33    H      -71.0880  -90.4940   -6.7940 H       2  LIG2        0.0235
     34    H      -72.2610  -89.3330   -8.4890 H       2  LIG2        0.0268
     35    H      -72.9750  -88.1430   -9.5470 H       2  LIG2        0.0268
     36    H      -71.6870  -88.1550   -6.3040 H       2  LIG2        0.0233
     37    H      -72.9180  -87.0220   -6.8270 H       2  LIG2        0.0233
     38    H      -71.3390  -86.4290   -6.3360 H       2  LIG2        0.0233
     39    H      -69.2290  -89.5920  -12.3310 H       2  LIG2        0.0257
     40    H      -67.5410  -89.1400  -12.4910 H       2  LIG2        0.0257
     41    H      -68.7890  -87.9090  -12.5810 H       2  LIG2        0.0257
     42    H      -67.7850  -86.7860  -10.4290 H       2  LIG2        0.2102
@<TRIPOS>BOND
     1    41    16    1
     2    40    16    1
     3    39    16    1
     4    16     9    1
     5    24    10    1
     6    20     6    1
     7    26    11    1
     8     9     1    1
     9     9     6    1
    10     9    11    1
    11    42     1    1
    12    25    10    1
    13    10     6    1
    14    10    14    1
    15     6     5    1
    16    11    27    1
    17    11     7    1
    18    35    14    1
    19    14    34    1
    20    14     8    1
    21    23     8    1
    22    21     7    1
    23    19     5    1
    24     5     8    1
    25     5     2    1
    26     7    22    1
    27     7     4    1
    28     8    15    1
    29    32    13    1
    30     4     2    1
    31     4    18    1
    32     4     3    1
    33     2     3    1
    34     2    17    1
    35    13    31    1
    36    13    33    1
    37    13     3    1
    38    15    37    1
    39    15    38    1
    40    15    36    1
    41     3    12    1
    42    12    28    1
    43    12    29    1
    44    12    30    1
@<TRIPOS>MOLECULE
11996452_1_run_9.pdb
 42 44 0 0 0
SMALL
GASTEIGER

@<TRIPOS>ATOM
      1    O      -70.7840  -85.1590   -6.1790 O.3     2  LIG2       -0.3886
      2    C      -71.0670  -87.2670   -8.9550 C.3     2  LIG2       -0.0289
      3    C      -71.8380  -88.5780   -8.9090 C.3     2  LIG2       -0.0284
      4    C      -72.4120  -87.3690   -8.2000 C.3     2  LIG2       -0.0319
      5    C      -69.6430  -86.9440   -8.3770 C.3     2  LIG2       -0.0294
      6    C      -69.2690  -86.9180   -6.8720 C.3     2  LIG2       -0.0090
      7    C      -72.6530  -87.3110   -6.6730 C.3     2  LIG2       -0.0468
      8    C      -68.4680  -87.7410   -9.0040 C.3     2  LIG2       -0.0404
      9    C      -70.3110  -86.4490   -5.8200 C.3     2  LIG2        0.0664
     10    C      -68.4900  -88.2200   -6.5870 C.3     2  LIG2       -0.0471
     11    C      -71.5140  -87.4010   -5.6460 C.3     2  LIG2       -0.0237
     12    C      -72.5570  -89.0030  -10.2050 C.3     2  LIG2       -0.0593
     13    C      -71.3410  -89.8040   -8.1260 C.3     2  LIG2       -0.0593
     14    C      -68.0570  -88.7820   -7.9490 C.3     2  LIG2       -0.0498
     15    C      -68.7010  -88.3280  -10.4100 C.3     2  LIG2       -0.0621
     16    C      -69.6350  -86.2360   -4.4430 C.3     2  LIG2       -0.0358
     17    H      -71.1350  -86.7580   -9.9180 H       2  LIG2        0.0312
     18    H      -73.2050  -86.8090   -8.6980 H       2  LIG2        0.0309
     19    H      -69.5120  -85.9090   -8.7010 H       2  LIG2        0.0310
     20    H      -68.4890  -86.1510   -6.8140 H       2  LIG2        0.0331
     21    H      -73.2030  -86.3890   -6.4740 H       2  LIG2        0.0269
     22    H      -73.3730  -88.0950   -6.4350 H       2  LIG2        0.0269
     23    H      -67.6280  -87.0510   -9.1080 H       2  LIG2        0.0301
     24    H      -67.6090  -88.0020   -5.9810 H       2  LIG2        0.0269
     25    H      -69.0620  -88.9500   -6.0170 H       2  LIG2        0.0269
     26    H      -71.9780  -87.1980   -4.6790 H       2  LIG2        0.0293
     27    H      -71.1780  -88.4280   -5.5260 H       2  LIG2        0.0293
     28    H      -73.4050  -89.6530   -9.9870 H       2  LIG2        0.0235
     29    H      -71.8830  -89.5450  -10.8690 H       2  LIG2        0.0235
     30    H      -72.9420  -88.1490  -10.7640 H       2  LIG2        0.0235
     31    H      -72.1800  -90.4180   -7.7950 H       2  LIG2        0.0235
     32    H      -70.7680  -89.5510   -7.2470 H       2  LIG2        0.0235
     33    H      -70.7040  -90.4320   -8.7490 H       2  LIG2        0.0235
     34    H      -68.5240  -89.7490   -8.1370 H       2  LIG2        0.0268
     35    H      -66.9800  -88.9510   -7.9720 H       2  LIG2        0.0268
     36    H      -69.4710  -89.0980  -10.4110 H       2  LIG2        0.0233
     37    H      -67.7890  -88.7840  -10.7960 H       2  LIG2        0.0233
     38    H      -69.0010  -87.5530  -11.1160 H       2  LIG2        0.0233
     39    H      -69.2640  -87.1760   -4.0320 H       2  LIG2        0.0257
     40    H      -70.3240  -85.8160   -3.7080 H       2  LIG2        0.0257
     41    H      -68.7850  -85.5540   -4.5100 H       2  LIG2        0.0257
     42    H      -71.1610  -85.2080   -7.0600 H       2  LIG2        0.2102
@<TRIPOS>BOND
     1    38    15    1
     2    29    12    1
     3    37    15    1
     4    30    12    1
     5    36    15    1
     6    15     8    1
     7    12    28    1
     8    12     3    1
     9    17     2    1
    10    23     8    1
    11     8     5    1
    12     8    14    1
    13     2     3    1
    14     2     5    1
    15     2     4    1
    16     3     4    1
    17     3    13    1
    18    33    13    1
    19    19     5    1
    20    18     4    1
    21     5     6    1
    22     4     7    1
    23    34    14    1
    24    13    31    1
    25    13    32    1
    26    35    14    1
    27    14    10    1
    28    42     1    1
    29     6    20    1
    30     6    10    1
    31     6     9    1
    32     7    21    1
    33     7    22    1
    34     7    11    1
    35    10    25    1
    36    10    24    1
    37     1     9    1
    38     9    11    1
    39     9    16    1
    40    11    27    1
    41    11    26    1
    42    41    16    1
    43    16    39    1
    44    16    40    1
@<TRIPOS>MOLECULE
11996452_1_run_17.pdb
 42 44 0 0 0
SMALL
GASTEIGER

@<TRIPOS>ATOM
      1    O      -69.5080  -85.8960   -8.6790 O.3     2  LIG2       -0.3886
      2    C      -71.0390  -88.5400  -10.3810 C.3     2  LIG2       -0.0289
      3    C      -71.8390  -89.6170   -9.6650 C.3     2  LIG2       -0.0284
      4    C      -71.9820  -88.1800   -9.2110 C.3     2  LIG2       -0.0319
      5    C      -69.4800  -88.3680  -10.4700 C.3     2  LIG2       -0.0294
      6    C      -68.5440  -88.0360   -9.2790 C.3     2  LIG2       -0.0090
      7    C      -71.5970  -87.6910   -7.7950 C.3     2  LIG2       -0.0468
      8    C      -68.7190  -89.5130  -11.1900 C.3     2  LIG2       -0.0404
      9    C      -69.0440  -87.1200   -8.1290 C.3     2  LIG2        0.0664
     10    C      -67.8300  -89.3500   -8.8970 C.3     2  LIG2       -0.0471
     11    C      -70.1580  -87.7400   -7.2580 C.3     2  LIG2       -0.0237
     12    C      -73.0430  -90.2060  -10.4270 C.3     2  LIG2       -0.0593
     13    C      -71.1800  -90.6790   -8.7680 C.3     2  LIG2       -0.0593
     14    C      -68.0180  -90.3130  -10.0790 C.3     2  LIG2       -0.0498
     15    C      -69.5350  -90.3790  -12.1700 C.3     2  LIG2       -0.0621
     16    C      -67.8660  -86.7030   -7.2150 C.3     2  LIG2       -0.0358
     17    H      -71.4360  -88.2870  -11.3670 H       2  LIG2        0.0312
     18    H      -72.8560  -87.6190   -9.5460 H       2  LIG2        0.0309
     19    H      -69.3990  -87.4960  -11.1230 H       2  LIG2        0.0310
     20    H      -67.7410  -87.4490   -9.7380 H       2  LIG2        0.0331
     21    H      -71.9440  -86.6590   -7.7110 H       2  LIG2        0.0269
     22    H      -72.2300  -88.2310   -7.0900 H       2  LIG2        0.0269
     23    H      -67.9320  -89.0510  -11.7900 H       2  LIG2        0.0301
     24    H      -66.7660  -89.1640   -8.7380 H       2  LIG2        0.0269
     25    H      -68.1920  -89.7840   -7.9670 H       2  LIG2        0.0269
     26    H      -70.1860  -87.2120   -6.3040 H       2  LIG2        0.0293
     27    H      -69.8910  -88.7490   -6.9530 H       2  LIG2        0.0293
     28    H      -73.7890  -90.6000   -9.7360 H       2  LIG2        0.0235
     29    H      -72.7330  -91.0200  -11.0820 H       2  LIG2        0.0235
     30    H      -73.5420  -89.4630  -11.0500 H       2  LIG2        0.0235
     31    H      -71.8710  -91.0110   -7.9920 H       2  LIG2        0.0235
     32    H      -70.2890  -90.3290   -8.2700 H       2  LIG2        0.0235
     33    H      -70.8960  -91.5570   -9.3470 H       2  LIG2        0.0235
     34    H      -68.6010  -91.1840   -9.7830 H       2  LIG2        0.0268
     35    H      -67.0550  -90.6910  -10.4250 H       2  LIG2        0.0268
     36    H      -70.3060  -90.9570  -11.6620 H       2  LIG2        0.0233
     37    H      -68.8910  -91.0890  -12.6900 H       2  LIG2        0.0233
     38    H      -70.0210  -89.7650  -12.9280 H       2  LIG2        0.0233
     39    H      -67.4450  -87.5620   -6.6910 H       2  LIG2        0.0257
     40    H      -68.1720  -85.9830   -6.4530 H       2  LIG2        0.0257
     41    H      -67.0560  -86.2410   -7.7820 H       2  LIG2        0.0257
     42    H      -68.8550  -85.5770   -9.3050 H       2  LIG2        0.2102
@<TRIPOS>BOND
     1    38    15    1
     2    37    15    1
     3    15    36    1
     4    15     8    1
     5    23     8    1
     6    17     2    1
     7     8     5    1
     8     8    14    1
     9    19     5    1
    10    29    12    1
    11    30    12    1
    12     5     2    1
    13     5     6    1
    14    12    28    1
    15    12     3    1
    16    35    14    1
    17     2     3    1
    18     2     4    1
    19    14    34    1
    20    14    10    1
    21    20     6    1
    22     3     4    1
    23     3    13    1
    24    18     4    1
    25    33    13    1
    26    42     1    1
    27     6    10    1
    28     6     9    1
    29     4     7    1
    30    10    24    1
    31    10    25    1
    32    13    32    1
    33    13    31    1
    34     1     9    1
    35     9    11    1
    36     9    16    1
    37     7    21    1
    38     7    11    1
    39     7    22    1
    40    41    16    1
    41    11    27    1
    42    11    26    1
    43    16    39    1
    44    16    40    1
@<TRIPOS>MOLECULE
11996452_1_run_14.pdb
 42 44 0 0 0
SMALL
GASTEIGER

@<TRIPOS>ATOM
      1    O      -67.0390  -88.7290   -6.6440 O.3     2  LIG2       -0.3886
      2    C      -69.5490  -90.0860   -8.6660 C.3     2  LIG2       -0.0289
      3    C      -69.9220  -89.4900  -10.0150 C.3     2  LIG2       -0.0284
      4    C      -68.4600  -89.5620   -9.6280 C.3     2  LIG2       -0.0319
      5    C      -69.9150  -89.5710   -7.2280 C.3     2  LIG2       -0.0294
      6    C      -69.4130  -88.2480   -6.5930 C.3     2  LIG2       -0.0090
      7    C      -67.5610  -88.3140   -9.4590 C.3     2  LIG2       -0.0468
      8    C      -71.4280  -89.5580   -6.8850 C.3     2  LIG2       -0.0404
      9    C      -67.9930  -87.7150   -6.9270 C.3     2  LIG2        0.0664
     10    C      -70.5910  -87.2510   -6.6570 C.3     2  LIG2       -0.0471
     11    C      -67.8150  -87.2440   -8.3860 C.3     2  LIG2       -0.0237
     12    C      -70.3800  -90.4790  -11.1050 C.3     2  LIG2       -0.0593
     13    C      -70.6490  -88.1420  -10.1510 C.3     2  LIG2       -0.0593
     14    C      -71.8550  -88.0810   -6.9270 C.3     2  LIG2       -0.0498
     15    C      -72.3330  -90.4980   -7.7060 C.3     2  LIG2       -0.0621
     16    C      -67.6090  -86.5570   -5.9740 C.3     2  LIG2       -0.0358
     17    H      -69.6290  -91.1750   -8.6360 H       2  LIG2        0.0312
     18    H      -67.8560  -90.3690  -10.0450 H       2  LIG2        0.0309
     19    H      -69.4710  -90.3500   -6.6040 H       2  LIG2        0.0310
     20    H      -69.3510  -88.4820   -5.5250 H       2  LIG2        0.0331
     21    H      -66.5390  -88.6760   -9.3270 H       2  LIG2        0.0269
     22    H      -67.5310  -87.8100  -10.4250 H       2  LIG2        0.0269
     23    H      -71.5280  -89.8850   -5.8470 H       2  LIG2        0.0301
     24    H      -70.6890  -86.7290   -5.7040 H       2  LIG2        0.0269
     25    H      -70.4580  -86.4710   -7.4040 H       2  LIG2        0.0269
     26    H      -66.9510  -86.5770   -8.4310 H       2  LIG2        0.0293
     27    H      -68.6270  -86.5840   -8.6790 H       2  LIG2        0.0293
     28    H      -70.1970  -90.0750  -12.1010 H       2  LIG2        0.0235
     29    H      -71.4460  -90.6890  -11.0220 H       2  LIG2        0.0235
     30    H      -69.8570  -91.4340  -11.0440 H       2  LIG2        0.0235
     31    H      -70.3940  -87.6590  -11.0950 H       2  LIG2        0.0235
     32    H      -70.4120  -87.4420   -9.3640 H       2  LIG2        0.0235
     33    H      -71.7300  -88.2790  -10.1380 H       2  LIG2        0.0235
     34    H      -72.2960  -87.8180   -7.8880 H       2  LIG2        0.0268
     35    H      -72.6170  -87.8780   -6.1730 H       2  LIG2        0.0268
     36    H      -72.3760  -90.2120   -8.7560 H       2  LIG2        0.0233
     37    H      -73.3550  -90.4830   -7.3260 H       2  LIG2        0.0233
     38    H      -71.9820  -91.5290   -7.6540 H       2  LIG2        0.0233
     39    H      -68.2490  -85.6860   -6.1270 H       2  LIG2        0.0257
     40    H      -66.5790  -86.2250   -6.1230 H       2  LIG2        0.0257
     41    H      -67.7020  -86.8460   -4.9250 H       2  LIG2        0.0257
     42    H      -66.1710  -88.4090   -6.9000 H       2  LIG2        0.2102
@<TRIPOS>BOND
     1    28    12    1
     2    12    30    1
     3    12    29    1
     4    12     3    1
     5    31    13    1
     6    22     7    1
     7    13    33    1
     8    13     3    1
     9    13    32    1
    10    18     4    1
    11     3     4    1
    12     3     2    1
    13     4     7    1
    14     4     2    1
    15     7    21    1
    16     7    11    1
    17    36    15    1
    18    27    11    1
    19     2    17    1
    20     2     5    1
    21    26    11    1
    22    11     9    1
    23    34    14    1
    24    15    38    1
    25    15    37    1
    26    15     8    1
    27    25    10    1
    28     5     8    1
    29     5    19    1
    30     5     6    1
    31    14     8    1
    32    14    10    1
    33    14    35    1
    34     9     1    1
    35     9     6    1
    36     9    16    1
    37    42     1    1
    38     8    23    1
    39    10     6    1
    40    10    24    1
    41     6    20    1
    42    39    16    1
    43    40    16    1
    44    16    41    1
@<TRIPOS>MOLECULE
11996452_1_run_16.pdb
 42 44 0 0 0
SMALL
GASTEIGER

@<TRIPOS>ATOM
      1    O      -70.7890  -85.4100   -6.4770 O.3     2  LIG2       -0.3886
      2    C      -68.3930  -87.8940   -7.0410 C.3     2  LIG2       -0.0289
      3    C      -68.5670  -88.9690   -8.1030 C.3     2  LIG2       -0.0284
      4    C      -68.9900  -87.5520   -8.4250 C.3     2  LIG2       -0.0319
      5    C      -69.0720  -87.7880   -5.6290 C.3     2  LIG2       -0.0294
      6    C      -70.5850  -87.5580   -5.3750 C.3     2  LIG2       -0.0090
      7    C      -70.4460  -87.1520   -8.7610 C.3     2  LIG2       -0.0468
      8    C      -68.7310  -88.9280   -4.6330 C.3     2  LIG2       -0.0404
      9    C      -71.4130  -86.6800   -6.3530 C.3     2  LIG2        0.0664
     10    C      -71.1750  -88.9210   -4.9530 C.3     2  LIG2       -0.0471
     11    C      -71.6010  -87.2930   -7.7570 C.3     2  LIG2       -0.0237
     12    C      -67.2840  -89.4650   -8.8010 C.3     2  LIG2       -0.0593
     13    C      -69.5980  -90.1030   -7.9720 C.3     2  LIG2       -0.0593
     14    C      -69.9870  -89.8130   -4.5640 C.3     2  LIG2       -0.0498
     15    C      -67.4260  -89.7070   -4.8910 C.3     2  LIG2       -0.0621
     16    C      -72.8040  -86.3620   -5.7530 C.3     2  LIG2       -0.0358
     17    H      -67.3570  -87.5750   -6.9120 H       2  LIG2        0.0312
     18    H      -68.3150  -86.9360   -9.0220 H       2  LIG2        0.0309
     19    H      -68.5970  -86.8880   -5.2320 H       2  LIG2        0.0310
     20    H      -70.6060  -86.9850   -4.4420 H       2  LIG2        0.0331
     21    H      -70.4210  -86.1110   -9.0900 H       2  LIG2        0.0269
     22    H      -70.7260  -87.6980   -9.6620 H       2  LIG2        0.0269
     23    H      -68.6130  -88.4720   -3.6480 H       2  LIG2        0.0301
     24    H      -71.8350  -88.7900   -4.0930 H       2  LIG2        0.0269
     25    H      -71.7880  -89.3840   -5.7230 H       2  LIG2        0.0269
     26    H      -72.4590  -86.8120   -8.2320 H       2  LIG2        0.0293
     27    H      -71.9310  -88.3260   -7.6850 H       2  LIG2        0.0293
     28    H      -67.5070  -89.8590   -9.7930 H       2  LIG2        0.0235
     29    H      -66.8060  -90.2580   -8.2270 H       2  LIG2        0.0235
     30    H      -66.5490  -88.6700   -8.9290 H       2  LIG2        0.0235
     31    H      -69.9250  -90.4430   -8.9560 H       2  LIG2        0.0235
     32    H      -70.4840  -89.8190   -7.4250 H       2  LIG2        0.0235
     33    H      -69.1690  -90.9630   -7.4580 H       2  LIG2        0.0235
     34    H      -69.9100  -90.6710   -5.2310 H       2  LIG2        0.0268
     35    H      -70.1210  -90.2160   -3.5580 H       2  LIG2        0.0268
     36    H      -67.4640  -90.2740   -5.8200 H       2  LIG2        0.0233
     37    H      -67.2330  -90.4170   -4.0870 H       2  LIG2        0.0233
     38    H      -66.5700  -89.0340   -4.9440 H       2  LIG2        0.0233
     39    H      -73.4090  -87.2650   -5.6480 H       2  LIG2        0.0257
     40    H      -73.3720  -85.6680   -6.3760 H       2  LIG2        0.0257
     41    H      -72.7250  -85.9090   -4.7630 H       2  LIG2        0.0257
     42    H      -71.2600  -84.9050   -7.1440 H       2  LIG2        0.2102
@<TRIPOS>BOND
     1    28    12    1
     2    22     7    1
     3    21     7    1
     4    18     4    1
     5    31    13    1
     6    30    12    1
     7    12    29    1
     8    12     3    1
     9     7     4    1
    10     7    11    1
    11     4     3    1
    12     4     2    1
    13    26    11    1
    14     3    13    1
    15     3     2    1
    16    13    33    1
    17    13    32    1
    18    11    27    1
    19    11     9    1
    20    42     1    1
    21     2    17    1
    22     2     5    1
    23     1     9    1
    24    40    16    1
    25     9    16    1
    26     9     6    1
    27    36    15    1
    28    16    39    1
    29    16    41    1
    30    25    10    1
    31     5     6    1
    32     5    19    1
    33     5     8    1
    34     6    10    1
    35     6    20    1
    36    34    14    1
    37    10    14    1
    38    10    24    1
    39    38    15    1
    40    15     8    1
    41    15    37    1
    42     8    14    1
    43     8    23    1
    44    14    35    1
@<TRIPOS>MOLECULE
11996452_1_run_14.pdb
 42 44 0 0 0
SMALL
GASTEIGER

@<TRIPOS>ATOM
      1    O      -67.0390  -86.5960   -6.7350 O.3     2  LIG2       -0.3886
      2    C      -69.1020  -88.2200   -9.0450 C.3     2  LIG2       -0.0289
      3    C      -70.6110  -88.3110   -8.8690 C.3     2  LIG2       -0.0284
      4    C      -69.9130  -87.0140   -8.5200 C.3     2  LIG2       -0.0319
      5    C      -67.9760  -89.0350   -8.3140 C.3     2  LIG2       -0.0294
      6    C      -67.6370  -88.9430   -6.8040 C.3     2  LIG2       -0.0090
      7    C      -69.9030  -86.4080   -7.0960 C.3     2  LIG2       -0.0468
      8    C      -67.9850  -90.5660   -8.5660 C.3     2  LIG2       -0.0404
      9    C      -67.7890  -87.5910   -6.0540 C.3     2  LIG2        0.0664
     10    C      -68.2250  -90.2060   -6.1400 C.3     2  LIG2       -0.0471
     11    C      -69.2470  -87.1090   -5.8970 C.3     2  LIG2       -0.0237
     12    C      -71.4590  -88.2950  -10.1570 C.3     2  LIG2       -0.0593
     13    C      -71.2660  -89.1850   -7.7870 C.3     2  LIG2       -0.0593
     14    C      -68.5230  -91.2010   -7.2720 C.3     2  LIG2       -0.0498
     15    C      -68.6910  -91.0540   -9.8470 C.3     2  LIG2       -0.0621
     16    C      -67.1320  -87.6690   -4.6540 C.3     2  LIG2       -0.0358
     17    H      -68.7920  -88.1270  -10.0880 H       2  LIG2        0.0312
     18    H      -69.9510  -86.1980   -9.2430 H       2  LIG2        0.0309
     19    H      -67.0810  -88.6530   -8.8110 H       2  LIG2        0.0310
     20    H      -66.5590  -89.1300   -6.7690 H       2  LIG2        0.0331
     21    H      -69.4590  -85.4130   -7.1780 H       2  LIG2        0.0269
     22    H      -70.9400  -86.2030   -6.8310 H       2  LIG2        0.0269
     23    H      -66.9450  -90.8840   -8.6630 H       2  LIG2        0.0301
     24    H      -67.4970  -90.6390   -5.4510 H       2  LIG2        0.0269
     25    H      -69.1110  -90.0080   -5.5400 H       2  LIG2        0.0269
     26    H      -69.2860  -86.3850   -5.0800 H       2  LIG2        0.0293
     27    H      -69.8790  -87.9100   -5.5210 H       2  LIG2        0.0293
     28    H      -72.4640  -87.9200   -9.9580 H       2  LIG2        0.0235
     29    H      -71.5540  -89.2960  -10.5770 H       2  LIG2        0.0235
     30    H      -71.0260  -87.6590  -10.9290 H       2  LIG2        0.0235
     31    H      -72.2290  -88.7690   -7.4850 H       2  LIG2        0.0235
     32    H      -70.6700  -89.2830   -6.8920 H       2  LIG2        0.0235
     33    H      -71.4500  -90.1930   -8.1580 H       2  LIG2        0.0235
     34    H      -69.5910  -91.4050   -7.3400 H       2  LIG2        0.0268
     35    H      -68.0370  -92.1590   -7.0810 H       2  LIG2        0.0268
     36    H      -69.7630  -90.8610   -9.8230 H       2  LIG2        0.0233
     37    H      -68.5600  -92.1280   -9.9770 H       2  LIG2        0.0233
     38    H      -68.2830  -90.5660  -10.7320 H       2  LIG2        0.0233
     39    H      -67.6530  -88.3780   -4.0080 H       2  LIG2        0.0257
     40    H      -67.1400  -86.7050   -4.1410 H       2  LIG2        0.0257
     41    H      -66.0900  -87.9900   -4.7120 H       2  LIG2        0.0257
     42    H      -66.1690  -86.9510   -6.9290 H       2  LIG2        0.2102
@<TRIPOS>BOND
     1    30    12    1
     2    38    15    1
     3    29    12    1
     4    12    28    1
     5    12     3    1
     6    17     2    1
     7    37    15    1
     8    15    36    1
     9    15     8    1
    10    18     4    1
    11     2     3    1
    12     2     4    1
    13     2     5    1
    14     3     4    1
    15     3    13    1
    16    19     5    1
    17    23     8    1
    18     8     5    1
    19     8    14    1
    20     4     7    1
    21     5     6    1
    22    33    13    1
    23    13    31    1
    24    13    32    1
    25    34    14    1
    26    14    35    1
    27    14    10    1
    28    21     7    1
    29     7    22    1
    30     7    11    1
    31    42     1    1
    32     6    20    1
    33     6    10    1
    34     6     9    1
    35     1     9    1
    36    10    25    1
    37    10    24    1
    38     9    11    1
    39     9    16    1
    40    11    27    1
    41    11    26    1
    42    41    16    1
    43    16    40    1
    44    16    39    1
@<TRIPOS>MOLECULE
11996452_1_run_6.pdb
 42 44 0 0 0
SMALL
GASTEIGER

@<TRIPOS>ATOM
      1    O      -70.0390  -85.8820   -7.5360 O.3     2  LIG2       -0.3886
      2    C      -68.7360  -88.5460   -9.3890 C.3     2  LIG2       -0.0289
      3    C      -69.6170  -89.4840  -10.2000 C.3     2  LIG2       -0.0284
      4    C      -69.9320  -88.0030  -10.2020 C.3     2  LIG2       -0.0319
      5    C      -68.5100  -88.5070   -7.8350 C.3     2  LIG2       -0.0294
      6    C      -69.5850  -88.1390   -6.7800 C.3     2  LIG2       -0.0090
      7    C      -71.2580  -87.4140   -9.6650 C.3     2  LIG2       -0.0468
      8    C      -67.8530  -89.7720   -7.2210 C.3     2  LIG2       -0.0404
      9    C      -70.6720  -87.0810   -7.1150 C.3     2  LIG2        0.0664
     10    C      -70.0430  -89.4630   -6.1320 C.3     2  LIG2       -0.0471
     11    C      -71.6840  -87.5260   -8.1930 C.3     2  LIG2       -0.0237
     12    C      -69.0130  -90.0450  -11.5030 C.3     2  LIG2       -0.0593
     13    C      -70.5630  -90.5040   -9.5460 C.3     2  LIG2       -0.0593
     14    C      -68.9810  -90.5160   -6.4870 C.3     2  LIG2       -0.0498
     15    C      -67.0320  -90.6600   -8.1770 C.3     2  LIG2       -0.0621
     16    C      -71.4460  -86.6730   -5.8370 C.3     2  LIG2       -0.0358
     17    H      -67.7630  -88.3580   -9.8490 H       2  LIG2        0.0312
     18    H      -69.6110  -87.4090  -11.0590 H       2  LIG2        0.0309
     19    H      -67.7680  -87.7100   -7.7480 H       2  LIG2        0.0310
     20    H      -69.0090  -87.6630   -5.9800 H       2  LIG2        0.0331
     21    H      -71.2640  -86.3540   -9.9290 H       2  LIG2        0.0269
     22    H      -72.0610  -87.8320  -10.2720 H       2  LIG2        0.0269
     23    H      -67.1510  -89.4330   -6.4560 H       2  LIG2        0.0301
     24    H      -70.0990  -89.3480   -5.0480 H       2  LIG2        0.0269
     25    H      -71.0370  -89.7770   -6.4440 H       2  LIG2        0.0269
     26    H      -72.5800  -86.9080   -8.1020 H       2  LIG2        0.0293
     27    H      -72.0690  -88.5180   -7.9730 H       2  LIG2        0.0293
     28    H      -69.7960  -90.3110  -12.2140 H       2  LIG2        0.0235
     29    H      -68.4220  -90.9400  -11.3080 H       2  LIG2        0.0235
     30    H      -68.3590  -89.3280  -11.9990 H       2  LIG2        0.0235
     31    H      -71.4200  -90.7050  -10.1900 H       2  LIG2        0.0235
     32    H      -70.9530  -90.1810   -8.5920 H       2  LIG2        0.0235
     33    H      -70.0550  -91.4530   -9.3740 H       2  LIG2        0.0235
     34    H      -69.4080  -91.3060   -7.1040 H       2  LIG2        0.0268
     35    H      -68.6030  -91.0000   -5.5860 H       2  LIG2        0.0268
     36    H      -67.6530  -91.1240   -8.9410 H       2  LIG2        0.0233
     37    H      -66.5380  -91.4650   -7.6310 H       2  LIG2        0.0233
     38    H      -66.2550  -90.0840   -8.6800 H       2  LIG2        0.0233
     39    H      -72.0200  -87.5100   -5.4350 H       2  LIG2        0.0257
     40    H      -72.1530  -85.8620   -6.0250 H       2  LIG2        0.0257
     41    H      -70.7740  -86.3330   -5.0470 H       2  LIG2        0.0257
     42    H      -70.7170  -85.2570   -7.8000 H       2  LIG2        0.2102
@<TRIPOS>BOND
     1    28    12    1
     2    30    12    1
     3    12    29    1
     4    12     3    1
     5    18     4    1
     6    22     7    1
     7     4     3    1
     8     4     7    1
     9     4     2    1
    10     3    13    1
    11     3     2    1
    12    31    13    1
    13    21     7    1
    14    17     2    1
    15     7    11    1
    16    13    33    1
    17    13    32    1
    18     2     5    1
    19    36    15    1
    20    38    15    1
    21    11    26    1
    22    11    27    1
    23    11     9    1
    24    15    37    1
    25    15     8    1
    26     5    19    1
    27     5     8    1
    28     5     6    1
    29    42     1    1
    30     1     9    1
    31     8    14    1
    32     8    23    1
    33     9     6    1
    34     9    16    1
    35    34    14    1
    36     6    10    1
    37     6    20    1
    38    14    10    1
    39    14    35    1
    40    25    10    1
    41    10    24    1
    42    40    16    1
    43    16    39    1
    44    16    41    1
