@<TRIPOS>MOLECULE
11996452_5_run_1.pdb
 42 44 0 0 0
SMALL
GASTEIGER

@<TRIPOS>ATOM
      1    O      -70.9560  -88.6590  -12.0200 O.3     2  LIG2       -0.3886
      2    C      -69.4120  -87.0510   -8.4190 C.3     2  LIG2       -0.0289
      3    C      -68.3900  -87.6580   -7.4740 C.3     2  LIG2       -0.0284
      4    C      -68.0040  -87.4350   -8.9290 C.3     2  LIG2       -0.0319
      5    C      -70.7320  -87.6870   -8.9730 C.3     2  LIG2       -0.0294
      6    C      -70.7390  -89.1070   -9.5990 C.3     2  LIG2       -0.0090
      7    C      -67.8080  -88.5820   -9.9500 C.3     2  LIG2       -0.0468
      8    C      -71.9820  -87.5930   -8.0460 C.3     2  LIG2       -0.0404
      9    C      -70.1090  -89.2170  -11.0270 C.3     2  LIG2        0.0664
     10    C      -72.2070  -89.5560   -9.4860 C.3     2  LIG2       -0.0471
     11    C      -68.7420  -88.4910  -11.1730 C.3     2  LIG2       -0.0237
     12    C      -67.7780  -86.6810   -6.4510 C.3     2  LIG2       -0.0593
     13    C      -68.4690  -89.0840   -6.8760 C.3     2  LIG2       -0.0593
     14    C      -72.7040  -88.9440   -8.1800 C.3     2  LIG2       -0.0498
     15    C      -71.7190  -87.2260   -6.5710 C.3     2  LIG2       -0.0621
     16    C      -69.9450  -90.7020  -11.4270 C.3     2  LIG2       -0.0358
     17    H      -69.5820  -85.9810   -8.2910 H       2  LIG2        0.0312
     18    H      -67.2890  -86.6310   -9.1080 H       2  LIG2        0.0309
     19    H      -70.9780  -87.0320   -9.8120 H       2  LIG2        0.0310
     20    H      -70.1980  -89.7860   -8.9570 H       2  LIG2        0.0331
     21    H      -66.7860  -88.5000  -10.3220 H       2  LIG2        0.0269
     22    H      -67.8500  -89.5710   -9.5010 H       2  LIG2        0.0269
     23    H      -72.6460  -86.8230   -8.4430 H       2  LIG2        0.0301
     24    H      -72.8070  -89.1880  -10.3190 H       2  LIG2        0.0269
     25    H      -72.3050  -90.6430   -9.4720 H       2  LIG2        0.0269
     26    H      -68.8960  -87.4320  -11.3900 H       2  LIG2        0.0293
     27    H      -68.2110  -88.8810  -12.0440 H       2  LIG2        0.0293
     28    H      -66.7900  -87.0130   -6.1320 H       2  LIG2        0.0235
     29    H      -68.4070  -86.6010   -5.5640 H       2  LIG2        0.0235
     30    H      -67.6630  -85.6750   -6.8560 H       2  LIG2        0.0235
     31    H      -67.4910  -89.3840   -6.5020 H       2  LIG2        0.0235
     32    H      -68.7630  -89.8700   -7.5560 H       2  LIG2        0.0235
     33    H      -69.1550  -89.1190   -6.0300 H       2  LIG2        0.0235
     34    H      -72.4570  -89.6030   -7.3450 H       2  LIG2        0.0268
     35    H      -73.7890  -88.8270   -8.1860 H       2  LIG2        0.0268
     36    H      -71.0900  -87.9610   -6.0740 H       2  LIG2        0.0233
     37    H      -72.6550  -87.1710   -6.0140 H       2  LIG2        0.0233
     38    H      -71.2370  -86.2530   -6.4800 H       2  LIG2        0.0233
     39    H      -69.2720  -91.2260  -10.7480 H       2  LIG2        0.0257
     40    H      -69.5380  -90.8140  -12.4340 H       2  LIG2        0.0257
     41    H      -70.8970  -91.2340  -11.4110 H       2  LIG2        0.0257
     42    H      -71.0390  -87.7180  -11.8540 H       2  LIG2        0.2102
@<TRIPOS>BOND
     1    40    16    1
     2    27    11    1
     3     1    42    1
     4     1     9    1
     5    16    41    1
     6    16     9    1
     7    16    39    1
     8    26    11    1
     9    11     9    1
    10    11     7    1
    11     9     6    1
    12    21     7    1
    13    24    10    1
    14     7    22    1
    15     7     4    1
    16    19     5    1
    17     6    10    1
    18     6     5    1
    19     6    20    1
    20    10    25    1
    21    10    14    1
    22    18     4    1
    23     5     2    1
    24     5     8    1
    25     4     2    1
    26     4     3    1
    27    23     8    1
    28     2    17    1
    29     2     3    1
    30    35    14    1
    31    14     8    1
    32    14    34    1
    33     8    15    1
    34    32    13    1
    35     3    13    1
    36     3    12    1
    37    13    31    1
    38    13    33    1
    39    30    12    1
    40    15    38    1
    41    15    36    1
    42    15    37    1
    43    12    28    1
    44    12    29    1
@<TRIPOS>MOLECULE
11996452_5_run_18.pdb
 42 44 0 0 0
SMALL
GASTEIGER

@<TRIPOS>ATOM
      1    O      -60.1350  -76.9980  -12.9290 O.3     2  LIG2       -0.3886
      2    C      -62.2030  -80.6930  -12.8200 C.3     2  LIG2       -0.0289
      3    C      -63.0400  -81.3400  -13.9090 C.3     2  LIG2       -0.0284
      4    C      -61.5850  -81.0030  -14.2020 C.3     2  LIG2       -0.0319
      5    C      -62.3130  -79.2450  -12.2310 C.3     2  LIG2       -0.0294
      6    C      -62.3820  -78.0030  -13.1590 C.3     2  LIG2       -0.0090
      7    C      -61.1440  -79.8660  -15.1550 C.3     2  LIG2       -0.0468
      8    C      -63.3800  -79.0370  -11.1140 C.3     2  LIG2       -0.0404
      9    C      -61.0350  -77.6010  -13.8460 C.3     2  LIG2        0.0664
     10    C      -63.0280  -76.9170  -12.2790 C.3     2  LIG2       -0.0471
     11    C      -60.2660  -78.7940  -14.4790 C.3     2  LIG2       -0.0237
     12    C      -63.3620  -82.8320  -13.6920 C.3     2  LIG2       -0.0593
     13    C      -64.1930  -80.6460  -14.6740 C.3     2  LIG2       -0.0593
     14    C      -64.0200  -77.6670  -11.3960 C.3     2  LIG2       -0.0498
     15    C      -64.4420  -80.1460  -10.9600 C.3     2  LIG2       -0.0621
     16    C      -61.2870  -76.5240  -14.9280 C.3     2  LIG2       -0.0358
     17    H      -61.8950  -81.3610  -12.0140 H       2  LIG2        0.0312
     18    H      -60.9110  -81.8570  -14.2800 H       2  LIG2        0.0309
     19    H      -61.3610  -79.1270  -11.7090 H       2  LIG2        0.0310
     20    H      -63.1020  -78.1790  -13.9440 H       2  LIG2        0.0331
     21    H      -60.5390  -80.3290  -15.9360 H       2  LIG2        0.0269
     22    H      -61.9710  -79.4090  -15.6930 H       2  LIG2        0.0269
     23    H      -62.8630  -78.9680  -10.1540 H       2  LIG2        0.0301
     24    H      -62.2890  -76.4090  -11.6580 H       2  LIG2        0.0269
     25    H      -63.5310  -76.1520  -12.8740 H       2  LIG2        0.0269
     26    H      -59.6590  -79.2980  -13.7230 H       2  LIG2        0.0293
     27    H      -59.5490  -78.4210  -15.2120 H       2  LIG2        0.0293
     28    H      -63.5440  -83.3370  -14.6400 H       2  LIG2        0.0235
     29    H      -64.2510  -82.9520  -13.0720 H       2  LIG2        0.0235
     30    H      -62.5490  -83.3640  -13.1960 H       2  LIG2        0.0235
     31    H      -64.4120  -81.1940  -15.5910 H       2  LIG2        0.0235
     32    H      -64.0110  -79.6300  -14.9910 H       2  LIG2        0.0235
     33    H      -65.1100  -80.6390  -14.0850 H       2  LIG2        0.0235
     34    H      -64.9700  -77.7800  -11.9220 H       2  LIG2        0.0268
     35    H      -64.2250  -77.1160  -10.4770 H       2  LIG2        0.0268
     36    H      -65.0390  -80.2650  -11.8620 H       2  LIG2        0.0233
     37    H      -65.1290  -79.9130  -10.1460 H       2  LIG2        0.0233
     38    H      -63.9860  -81.1080  -10.7280 H       2  LIG2        0.0233
     39    H      -61.9410  -76.8970  -15.7170 H       2  LIG2        0.0257
     40    H      -60.3620  -76.1960  -15.4050 H       2  LIG2        0.0257
     41    H      -61.7590  -75.6330  -14.5110 H       2  LIG2        0.0257
     42    H      -59.9640  -77.6200  -12.2190 H       2  LIG2        0.2102
@<TRIPOS>BOND
     1    21     7    1
     2    39    16    1
     3    22     7    1
     4    31    13    1
     5    40    16    1
     6    27    11    1
     7     7    11    1
     8     7     4    1
     9    32    13    1
    10    16    41    1
    11    16     9    1
    12    13    33    1
    13    13     3    1
    14    28    12    1
    15    11     9    1
    16    11    26    1
    17    18     4    1
    18     4     3    1
    19     4     2    1
    20    20     6    1
    21     3    12    1
    22     3     2    1
    23     9     6    1
    24     9     1    1
    25    12    30    1
    26    12    29    1
    27     6    10    1
    28     6     5    1
    29     1    42    1
    30    25    10    1
    31     2     5    1
    32     2    17    1
    33    10    24    1
    34    10    14    1
    35     5    19    1
    36     5     8    1
    37    34    14    1
    38    36    15    1
    39    14     8    1
    40    14    35    1
    41     8    15    1
    42     8    23    1
    43    15    38    1
    44    15    37    1
@<TRIPOS>MOLECULE
11996452_5_run_17.pdb
 42 44 0 0 0
SMALL
GASTEIGER

@<TRIPOS>ATOM
      1    O      -67.3380  -87.3830   -9.8980 O.3     2  LIG2       -0.3886
      2    C      -67.9770  -89.2950   -6.1730 C.3     2  LIG2       -0.0289
      3    C      -68.9300  -90.4300   -5.8440 C.3     2  LIG2       -0.0284
      4    C      -67.8790  -90.6430   -6.9230 C.3     2  LIG2       -0.0319
      5    C      -68.2840  -87.9340   -6.8840 C.3     2  LIG2       -0.0294
      6    C      -69.0790  -87.8840   -8.2170 C.3     2  LIG2       -0.0090
      7    C      -68.2070  -90.7440   -8.4330 C.3     2  LIG2       -0.0468
      8    C      -68.8450  -86.7960   -5.9780 C.3     2  LIG2       -0.0404
      9    C      -68.2940  -88.3490   -9.4870 C.3     2  LIG2        0.0664
     10    C      -69.6310  -86.4470   -8.2670 C.3     2  LIG2       -0.0471
     11    C      -67.5070  -89.6750   -9.2940 C.3     2  LIG2       -0.0237
     12    C      -68.6740  -91.1350   -4.4970 C.3     2  LIG2       -0.0593
     13    C      -70.4410  -90.4480   -6.1830 C.3     2  LIG2       -0.0593
     14    C      -69.9270  -86.0910   -6.8130 C.3     2  LIG2       -0.0498
     15    C      -69.3750  -87.2170   -4.5920 C.3     2  LIG2       -0.0621
     16    C      -69.2570  -88.4960  -10.6880 C.3     2  LIG2       -0.0358
     17    H      -67.1940  -89.1190   -5.4330 H       2  LIG2        0.0312
     18    H      -67.0630  -91.3160   -6.6590 H       2  LIG2        0.0309
     19    H      -67.2890  -87.5800   -7.1620 H       2  LIG2        0.0310
     20    H      -69.9570  -88.5090   -8.1350 H       2  LIG2        0.0331
     21    H      -67.8420  -91.7160   -8.7680 H       2  LIG2        0.0269
     22    H      -69.2740  -90.7740   -8.6410 H       2  LIG2        0.0269
     23    H      -68.0450  -86.0750   -5.7980 H       2  LIG2        0.0301
     24    H      -68.9020  -85.7490   -8.6790 H       2  LIG2        0.0269
     25    H      -70.5310  -86.3740   -8.8800 H       2  LIG2        0.0269
     26    H      -66.5330  -89.4760   -8.8410 H       2  LIG2        0.0293
     27    H      -67.2780  -90.1110  -10.2690 H       2  LIG2        0.0293
     28    H      -69.0460  -92.1590   -4.5120 H       2  LIG2        0.0235
     29    H      -69.1720  -90.6090   -3.6820 H       2  LIG2        0.0235
     30    H      -67.6130  -91.1820   -4.2490 H       2  LIG2        0.0235
     31    H      -70.8190  -91.4690   -6.1340 H       2  LIG2        0.0235
     32    H      -70.7130  -90.0950   -7.1670 H       2  LIG2        0.0235
     33    H      -71.0140  -89.8650   -5.4630 H       2  LIG2        0.0235
     34    H      -70.9230  -86.4440   -6.5410 H       2  LIG2        0.0268
     35    H      -69.9170  -85.0100   -6.6630 H       2  LIG2        0.0268
     36    H      -70.2070  -87.9140   -4.6680 H       2  LIG2        0.0233
     37    H      -69.7290  -86.3500   -4.0330 H       2  LIG2        0.0233
     38    H      -68.5950  -87.6870   -3.9910 H       2  LIG2        0.0233
     39    H      -70.0190  -89.2540  -10.4970 H       2  LIG2        0.0257
     40    H      -68.7350  -88.7880  -11.6010 H       2  LIG2        0.0257
     41    H      -69.7790  -87.5630  -10.9070 H       2  LIG2        0.0257
     42    H      -67.8040  -86.5840  -10.1510 H       2  LIG2        0.2102
@<TRIPOS>BOND
     1    40    16    1
     2    41    16    1
     3    16    39    1
     4    16     9    1
     5    27    11    1
     6    42     1    1
     7     1     9    1
     8     9    11    1
     9     9     6    1
    10    11    26    1
    11    11     7    1
    12    25    10    1
    13    21     7    1
    14    24    10    1
    15    22     7    1
    16     7     4    1
    17    10     6    1
    18    10    14    1
    19     6    20    1
    20     6     5    1
    21    32    13    1
    22    19     5    1
    23     4    18    1
    24     4     2    1
    25     4     3    1
    26     5     2    1
    27     5     8    1
    28    14    35    1
    29    14    34    1
    30    14     8    1
    31    13    31    1
    32    13     3    1
    33    13    33    1
    34     2     3    1
    35     2    17    1
    36     8    23    1
    37     8    15    1
    38     3    12    1
    39    36    15    1
    40    15    37    1
    41    15    38    1
    42    28    12    1
    43    12    30    1
    44    12    29    1
@<TRIPOS>MOLECULE
11996452_5_run_4.pdb
 42 44 0 0 0
SMALL
GASTEIGER

@<TRIPOS>ATOM
      1    O      -72.2120  -89.1490  -11.9290 O.3     2  LIG2       -0.3886
      2    C      -68.7920  -88.9520   -9.4390 C.3     2  LIG2       -0.0289
      3    C      -68.2680  -89.9940   -8.4680 C.3     2  LIG2       -0.0284
      4    C      -68.4320  -90.3720   -9.9320 C.3     2  LIG2       -0.0319
      5    C      -70.2320  -88.3440   -9.5390 C.3     2  LIG2       -0.0294
      6    C      -71.4890  -89.2540   -9.5680 C.3     2  LIG2       -0.0090
      7    C      -69.5240  -91.3390  -10.4520 C.3     2  LIG2       -0.0468
      8    C      -70.5480  -87.1620   -8.5730 C.3     2  LIG2       -0.0404
      9    C      -71.7370  -90.0170  -10.9110 C.3     2  LIG2        0.0664
     10    C      -72.6300  -88.3260   -9.1110 C.3     2  LIG2       -0.0471
     11    C      -70.4710  -90.7060  -11.4910 C.3     2  LIG2       -0.0237
     12    C      -66.8220  -89.7730   -7.9810 C.3     2  LIG2       -0.0593
     13    C      -69.1080  -90.6830   -7.3640 C.3     2  LIG2       -0.0593
     14    C      -71.9890  -87.3920   -8.0880 C.3     2  LIG2       -0.0498
     15    C      -69.5730  -86.9560   -7.3950 C.3     2  LIG2       -0.0621
     16    C      -72.8550  -91.0710  -10.7280 C.3     2  LIG2       -0.0358
     17    H      -68.0770  -88.1730   -9.7110 H       2  LIG2        0.0312
     18    H      -67.5050  -90.4980  -10.4930 H       2  LIG2        0.0309
     19    H      -70.2250  -87.8780  -10.5280 H       2  LIG2        0.0310
     20    H      -71.4130  -89.9960   -8.7860 H       2  LIG2        0.0331
     21    H      -69.0050  -92.1590  -10.9500 H       2  LIG2        0.0269
     22    H      -70.0860  -91.8220   -9.6560 H       2  LIG2        0.0269
     23    H      -70.5380  -86.2350   -9.1490 H       2  LIG2        0.0301
     24    H      -73.0340  -87.7450   -9.9410 H       2  LIG2        0.0269
     25    H      -73.4590  -88.8820   -8.6700 H       2  LIG2        0.0269
     26    H      -69.8850  -89.9930  -12.0760 H       2  LIG2        0.0293
     27    H      -70.7670  -91.4770  -12.2040 H       2  LIG2        0.0293
     28    H      -66.3580  -90.7130   -7.6830 H       2  LIG2        0.0235
     29    H      -66.7990  -89.1020   -7.1220 H       2  LIG2        0.0235
     30    H      -66.1880  -89.3320   -8.7510 H       2  LIG2        0.0235
     31    H      -68.6060  -91.5900   -7.0270 H       2  LIG2        0.0235
     32    H      -70.1000  -91.0000   -7.6490 H       2  LIG2        0.0235
     33    H      -69.2160  -90.0390   -6.4910 H       2  LIG2        0.0235
     34    H      -72.0000  -87.8610   -7.1020 H       2  LIG2        0.0268
     35    H      -72.5450  -86.4570   -8.0060 H       2  LIG2        0.0268
     36    H      -69.5410  -87.8210   -6.7370 H       2  LIG2        0.0233
     37    H      -69.8730  -86.0990   -6.7910 H       2  LIG2        0.0233
     38    H      -68.5590  -86.7600   -7.7450 H       2  LIG2        0.0233
     39    H      -72.5760  -91.8230   -9.9890 H       2  LIG2        0.0257
     40    H      -73.0770  -91.6000  -11.6570 H       2  LIG2        0.0257
     41    H      -73.7890  -90.6180  -10.3920 H       2  LIG2        0.0257
     42    H      -71.7460  -88.3140  -11.8570 H       2  LIG2        0.2102
@<TRIPOS>BOND
     1    27    11    1
     2    26    11    1
     3     1    42    1
     4     1     9    1
     5    40    16    1
     6    11     9    1
     7    11     7    1
     8    21     7    1
     9     9    16    1
    10     9     6    1
    11    16    41    1
    12    16    39    1
    13    19     5    1
    14    18     4    1
    15     7     4    1
    16     7    22    1
    17    24    10    1
    18     4     2    1
    19     4     3    1
    20    17     2    1
    21     6     5    1
    22     6    10    1
    23     6    20    1
    24     5     2    1
    25     5     8    1
    26     2     3    1
    27    23     8    1
    28    10    25    1
    29    10    14    1
    30    30    12    1
    31     8    14    1
    32     8    15    1
    33     3    12    1
    34     3    13    1
    35    14    35    1
    36    14    34    1
    37    12    28    1
    38    12    29    1
    39    38    15    1
    40    32    13    1
    41    15    37    1
    42    15    36    1
    43    13    31    1
    44    13    33    1
@<TRIPOS>MOLECULE
11996452_5_run_24.pdb
 42 44 0 0 0
SMALL
GASTEIGER

@<TRIPOS>ATOM
      1    O      -67.0390  -86.9110   -7.7770 O.3     2  LIG2       -0.3886
      2    C      -70.3720  -88.2750  -10.0040 C.3     2  LIG2       -0.0289
      3    C      -71.6710  -88.8720   -9.4930 C.3     2  LIG2       -0.0284
      4    C      -71.2670  -87.4810   -9.0260 C.3     2  LIG2       -0.0319
      5    C      -68.9020  -88.7020   -9.6740 C.3     2  LIG2       -0.0294
      6    C      -68.4340  -88.9050   -8.2080 C.3     2  LIG2       -0.0090
      7    C      -70.7940  -87.1630   -7.5870 C.3     2  LIG2       -0.0468
      8    C      -68.3290  -89.8920  -10.5020 C.3     2  LIG2       -0.0404
      9    C      -68.2190  -87.5940   -7.3820 C.3     2  LIG2        0.0664
     10    C      -67.2010  -89.8190   -8.3340 C.3     2  LIG2       -0.0471
     11    C      -69.3750  -86.5640   -7.5180 C.3     2  LIG2       -0.0237
     12    C      -72.8160  -88.9370  -10.5230 C.3     2  LIG2       -0.0593
     13    C      -71.7760  -90.0530   -8.4960 C.3     2  LIG2       -0.0593
     14    C      -67.5150  -90.7390   -9.5100 C.3     2  LIG2       -0.0498
     15    C      -69.3520  -90.7450  -11.2810 C.3     2  LIG2       -0.0621
     16    C      -68.0070  -87.9310   -5.8870 C.3     2  LIG2       -0.0358
     17    H      -70.3980  -87.9300  -11.0400 H       2  LIG2        0.0312
     18    H      -71.8600  -86.6590   -9.4290 H       2  LIG2        0.0309
     19    H      -68.3210  -87.8420  -10.0160 H       2  LIG2        0.0310
     20    H      -69.1610  -89.5030   -7.6780 H       2  LIG2        0.0331
     21    H      -71.4780  -86.4120   -7.1900 H       2  LIG2        0.0269
     22    H      -70.8950  -88.0030   -6.9040 H       2  LIG2        0.0269
     23    H      -67.6330  -89.4910  -11.2420 H       2  LIG2        0.0301
     24    H      -66.2950  -89.2480   -8.5420 H       2  LIG2        0.0269
     25    H      -67.0200  -90.3930   -7.4230 H       2  LIG2        0.0269
     26    H      -69.2350  -85.9510   -8.4110 H       2  LIG2        0.0293
     27    H      -69.3380  -85.8580   -6.6860 H       2  LIG2        0.0293
     28    H      -73.7890  -88.9330  -10.0310 H       2  LIG2        0.0235
     29    H      -72.7490  -89.8450  -11.1230 H       2  LIG2        0.0235
     30    H      -72.8020  -88.0930  -11.2130 H       2  LIG2        0.0235
     31    H      -72.7720  -90.0790   -8.0550 H       2  LIG2        0.0235
     32    H      -71.0970  -90.0280   -7.6560 H       2  LIG2        0.0235
     33    H      -71.6280  -91.0080   -8.9990 H       2  LIG2        0.0235
     34    H      -68.0930  -91.5980   -9.1630 H       2  LIG2        0.0268
     35    H      -66.6010  -91.1280   -9.9610 H       2  LIG2        0.0268
     36    H      -70.0730  -91.2210  -10.6190 H       2  LIG2        0.0233
     37    H      -68.8500  -91.5380  -11.8360 H       2  LIG2        0.0233
     38    H      -69.9030  -90.1470  -12.0060 H       2  LIG2        0.0233
     39    H      -68.8810  -88.4270   -5.4630 H       2  LIG2        0.0257
     40    H      -67.8210  -87.0380   -5.2870 H       2  LIG2        0.0257
     41    H      -67.1540  -88.5950   -5.7380 H       2  LIG2        0.0257
     42    H      -66.2810  -87.4090   -7.4640 H       2  LIG2        0.2102
@<TRIPOS>BOND
     1    38    15    1
     2    37    15    1
     3    15    36    1
     4    15     8    1
     5    23     8    1
     6    30    12    1
     7    29    12    1
     8    17     2    1
     9    12    28    1
    10    12     3    1
    11     8     5    1
    12     8    14    1
    13    19     5    1
    14     2     5    1
    15     2     3    1
    16     2     4    1
    17    35    14    1
    18     5     6    1
    19    14    34    1
    20    14    10    1
    21     3     4    1
    22     3    13    1
    23    18     4    1
    24     4     7    1
    25    33    13    1
    26    24    10    1
    27    13    31    1
    28    13    32    1
    29    26    11    1
    30    10     6    1
    31    10    25    1
    32     6    20    1
    33     6     9    1
    34     1    42    1
    35     1     9    1
    36     7    11    1
    37     7    21    1
    38     7    22    1
    39    11     9    1
    40    11    27    1
    41     9    16    1
    42    16    41    1
    43    16    39    1
    44    16    40    1
@<TRIPOS>MOLECULE
11996452_5_run_17.pdb
 42 44 0 0 0
SMALL
GASTEIGER

@<TRIPOS>ATOM
      1    O      -70.7440  -90.5270  -11.0250 O.3     2  LIG2       -0.3886
      2    C      -70.0930  -88.6150   -7.3020 C.3     2  LIG2       -0.0289
      3    C      -69.4520  -87.2660   -7.0320 C.3     2  LIG2       -0.0284
      4    C      -70.6740  -87.3300   -7.9360 C.3     2  LIG2       -0.0319
      5    C      -69.5350  -89.8130   -8.1420 C.3     2  LIG2       -0.0294
      6    C      -68.9720  -89.5990   -9.5730 C.3     2  LIG2       -0.0090
      7    C      -70.6220  -87.0990   -9.4660 C.3     2  LIG2       -0.0468
      8    C      -68.5490  -90.7700   -7.4050 C.3     2  LIG2       -0.0404
      9    C      -70.0410  -89.3410  -10.6860 C.3     2  LIG2        0.0664
     10    C      -68.0590  -90.8180   -9.7990 C.3     2  LIG2       -0.0471
     11    C      -71.1240  -88.2980  -10.2930 C.3     2  LIG2       -0.0237
     12    C      -69.6820  -86.6990   -5.6170 C.3     2  LIG2       -0.0593
     13    C      -68.0750  -86.8100   -7.5770 C.3     2  LIG2       -0.0593
     14    C      -67.4570  -91.1160   -8.4300 C.3     2  LIG2       -0.0498
     15    C      -67.9500  -90.2530   -6.0800 C.3     2  LIG2       -0.0621
     16    C      -69.3520  -88.8940  -11.9970 C.3     2  LIG2       -0.0358
     17    H      -70.6730  -89.0250   -6.4740 H       2  LIG2        0.0312
     18    H      -71.5930  -86.9230   -7.5140 H       2  LIG2        0.0309
     19    H      -70.4240  -90.4270   -8.3020 H       2  LIG2        0.0310
     20    H      -68.2990  -88.7540   -9.5720 H       2  LIG2        0.0331
     21    H      -71.2890  -86.2620   -9.6790 H       2  LIG2        0.0269
     22    H      -69.6500  -86.7620   -9.8180 H       2  LIG2        0.0269
     23    H      -69.0810  -91.6920   -7.1650 H       2  LIG2        0.0301
     24    H      -68.6220  -91.6830  -10.1530 H       2  LIG2        0.0269
     25    H      -67.2790  -90.6170  -10.5360 H       2  LIG2        0.0269
     26    H      -71.9230  -88.7780   -9.7230 H       2  LIG2        0.0293
     27    H      -71.6110  -87.9190  -11.1930 H       2  LIG2        0.0293
     28    H      -69.6140  -85.6110   -5.6120 H       2  LIG2        0.0235
     29    H      -68.9390  -87.0840   -4.9180 H       2  LIG2        0.0235
     30    H      -70.6630  -86.9610   -5.2200 H       2  LIG2        0.0235
     31    H      -67.9910  -85.7260   -7.5100 H       2  LIG2        0.0235
     32    H      -67.8710  -87.0450   -8.6110 H       2  LIG2        0.0235
     33    H      -67.2600  -87.2270   -6.9860 H       2  LIG2        0.0235
     34    H      -66.5670  -90.5020   -8.2760 H       2  LIG2        0.0268
     35    H      -67.1440  -92.1590   -8.3550 H       2  LIG2        0.0268
     36    H      -67.3650  -89.3470   -6.2240 H       2  LIG2        0.0233
     37    H      -67.2890  -90.9990   -5.6380 H       2  LIG2        0.0233
     38    H      -68.7270  -90.0400   -5.3450 H       2  LIG2        0.0233
     39    H      -68.8090  -87.9580  -11.8620 H       2  LIG2        0.0257
     40    H      -70.0680  -88.7380  -12.8050 H       2  LIG2        0.0257
     41    H      -68.6330  -89.6350  -12.3510 H       2  LIG2        0.0257
     42    H      -71.1550  -90.8740  -10.2300 H       2  LIG2        0.2102
@<TRIPOS>BOND
     1    40    16    1
     2    41    16    1
     3    16    39    1
     4    16     9    1
     5    27    11    1
     6     1     9    1
     7     1    42    1
     8     9    11    1
     9     9     6    1
    10    25    10    1
    11    11    26    1
    12    11     7    1
    13    24    10    1
    14    22     7    1
    15    10     6    1
    16    10    14    1
    17    21     7    1
    18     6    20    1
    19     6     5    1
    20     7     4    1
    21    32    13    1
    22    14    35    1
    23    14    34    1
    24    14     8    1
    25    19     5    1
    26     5     8    1
    27     5     2    1
    28     4    18    1
    29     4     2    1
    30     4     3    1
    31    13    31    1
    32    13     3    1
    33    13    33    1
    34     8    23    1
    35     8    15    1
    36     2     3    1
    37     2    17    1
    38     3    12    1
    39    36    15    1
    40    15    37    1
    41    15    38    1
    42    12    28    1
    43    12    30    1
    44    12    29    1
@<TRIPOS>MOLECULE
11996452_5_run_2.pdb
 42 44 0 0 0
SMALL
GASTEIGER

@<TRIPOS>ATOM
      1    O      -71.6670  -85.4090   -5.9290 O.3     2  LIG2       -0.3886
      2    C      -70.5750  -87.9240   -9.1560 C.3     2  LIG2       -0.0289
      3    C      -70.7470  -89.4270   -9.2840 C.3     2  LIG2       -0.0284
      4    C      -71.9770  -88.5640   -9.0450 C.3     2  LIG2       -0.0319
      5    C      -69.9050  -87.1110   -7.9970 C.3     2  LIG2       -0.0294
      6    C      -70.2790  -87.3690   -6.5130 C.3     2  LIG2       -0.0090
      7    C      -72.7640  -88.5420   -7.7120 C.3     2  LIG2       -0.0468
      8    C      -68.3530  -86.9790   -8.0580 C.3     2  LIG2       -0.0404
      9    C      -71.6750  -86.8220   -6.0660 C.3     2  LIG2        0.0664
     10    C      -69.0710  -86.8290   -5.7260 C.3     2  LIG2       -0.0471
     11    C      -72.8290  -87.1500   -7.0530 C.3     2  LIG2       -0.0237
     12    C      -70.5780  -89.9910  -10.7090 C.3     2  LIG2       -0.0593
     13    C      -70.2830  -90.4680   -8.2350 C.3     2  LIG2       -0.0593
     14    C      -67.8630  -87.1280   -6.6080 C.3     2  LIG2       -0.0498
     15    C      -67.6170  -87.9400   -9.0150 C.3     2  LIG2       -0.0621
     16    C      -72.0350  -87.3590   -4.6610 C.3     2  LIG2       -0.0358
     17    H      -70.3780  -87.4000  -10.0930 H       2  LIG2        0.0312
     18    H      -72.6530  -88.4630   -9.8950 H       2  LIG2        0.0309
     19    H      -70.2610  -86.0950   -8.1830 H       2  LIG2        0.0310
     20    H      -70.2740  -88.4320   -6.3210 H       2  LIG2        0.0331
     21    H      -73.7890  -88.8320   -7.9480 H       2  LIG2        0.0269
     22    H      -72.4300  -89.2940   -7.0020 H       2  LIG2        0.0269
     23    H      -68.1070  -85.9670   -8.3870 H       2  LIG2        0.0301
     24    H      -69.1480  -85.7540   -5.5560 H       2  LIG2        0.0269
     25    H      -68.9720  -87.3040   -4.7480 H       2  LIG2        0.0269
     26    H      -72.8650  -86.4090   -7.8550 H       2  LIG2        0.0293
     27    H      -73.7890  -87.0540   -6.5410 H       2  LIG2        0.0293
     28    H      -71.1280  -90.9230  -10.8320 H       2  LIG2        0.0235
     29    H      -69.5280  -90.1900  -10.9260 H       2  LIG2        0.0235
     30    H      -70.9400  -89.3020  -11.4730 H       2  LIG2        0.0235
     31    H      -70.7920  -91.4170   -8.4040 H       2  LIG2        0.0235
     32    H      -70.4800  -90.2230   -7.2020 H       2  LIG2        0.0235
     33    H      -69.2140  -90.6630   -8.3200 H       2  LIG2        0.0235
     34    H      -67.5100  -88.1440   -6.4180 H       2  LIG2        0.0268
     35    H      -67.0350  -86.4530   -6.3860 H       2  LIG2        0.0268
     36    H      -67.7720  -88.9820   -8.7440 H       2  LIG2        0.0233
     37    H      -66.5420  -87.7570   -8.9950 H       2  LIG2        0.0233
     38    H      -67.9440  -87.8070  -10.0460 H       2  LIG2        0.0233
     39    H      -72.1110  -88.4470   -4.6580 H       2  LIG2        0.0257
     40    H      -72.9900  -86.9690   -4.3040 H       2  LIG2        0.0257
     41    H      -71.2850  -87.0860   -3.9170 H       2  LIG2        0.0257
     42    H      -71.6240  -85.0190   -6.8050 H       2  LIG2        0.2102
@<TRIPOS>BOND
     1    30    12    1
     2    29    12    1
     3    28    12    1
     4    12     3    1
     5    17     2    1
     6    38    15    1
     7    18     4    1
     8     3     2    1
     9     3     4    1
    10     3    13    1
    11     2     4    1
    12     2     5    1
    13     4     7    1
    14    15    37    1
    15    15    36    1
    16    15     8    1
    17    31    13    1
    18    23     8    1
    19    33    13    1
    20    13    32    1
    21    19     5    1
    22     8     5    1
    23     8    14    1
    24     5     6    1
    25    21     7    1
    26    26    11    1
    27     7    11    1
    28     7    22    1
    29    11    27    1
    30    11     9    1
    31    42     1    1
    32    14    34    1
    33    14    35    1
    34    14    10    1
    35     6    20    1
    36     6     9    1
    37     6    10    1
    38     9     1    1
    39     9    16    1
    40    10    24    1
    41    10    25    1
    42    16    39    1
    43    16    40    1
    44    16    41    1
@<TRIPOS>MOLECULE
11996452_5_run_11.pdb
 42 44 0 0 0
SMALL
GASTEIGER

@<TRIPOS>ATOM
      1    O      -67.5330  -87.9090  -10.3890 O.3     2  LIG2       -0.3886
      2    C      -71.2010  -87.2880   -8.3650 C.3     2  LIG2       -0.0289
      3    C      -71.6310  -87.8110   -7.0070 C.3     2  LIG2       -0.0284
      4    C      -70.3720  -86.9620   -7.1020 C.3     2  LIG2       -0.0319
      5    C      -70.6320  -88.0870   -9.5860 C.3     2  LIG2       -0.0294
      6    C      -69.4670  -89.0980   -9.4130 C.3     2  LIG2       -0.0090
      7    C      -68.9420  -87.5240   -6.9160 C.3     2  LIG2       -0.0468
      8    C      -71.6840  -88.7620  -10.5170 C.3     2  LIG2       -0.0404
      9    C      -68.0530  -88.4660   -9.1920 C.3     2  LIG2        0.0664
     10    C      -69.5950  -90.0260  -10.6350 C.3     2  LIG2       -0.0471
     11    C      -68.0300  -87.3200   -8.1410 C.3     2  LIG2       -0.0237
     12    C      -72.8700  -87.1230   -6.3990 C.3     2  LIG2       -0.0593
     13    C      -71.5660  -89.2930   -6.5630 C.3     2  LIG2       -0.0593
     14    C      -71.0950  -90.1330  -10.8900 C.3     2  LIG2       -0.0498
     15    C      -73.1180  -88.8860   -9.9590 C.3     2  LIG2       -0.0621
     16    C      -67.0360  -89.5570   -8.7810 C.3     2  LIG2       -0.0358
     17    H      -71.7990  -86.4610   -8.7530 H       2  LIG2        0.0312
     18    H      -70.4500  -85.9560   -6.6860 H       2  LIG2        0.0309
     19    H      -70.2010  -87.2990  -10.2080 H       2  LIG2        0.0310
     20    H      -69.6690  -89.7370   -8.5650 H       2  LIG2        0.0331
     21    H      -68.4940  -86.9730   -6.0880 H       2  LIG2        0.0269
     22    H      -68.9260  -88.5600   -6.5870 H       2  LIG2        0.0269
     23    H      -71.7590  -88.1740  -11.4340 H       2  LIG2        0.0301
     24    H      -69.0980  -89.6080  -11.5120 H       2  LIG2        0.0269
     25    H      -69.1560  -91.0090  -10.4520 H       2  LIG2        0.0269
     26    H      -68.3130  -86.3730   -8.6060 H       2  LIG2        0.0293
     27    H      -67.0080  -87.1650   -7.7900 H       2  LIG2        0.0293
     28    H      -72.8660  -87.1930   -5.3120 H       2  LIG2        0.0235
     29    H      -73.7890  -87.5870   -6.7600 H       2  LIG2        0.0235
     30    H      -72.9230  -86.0640   -6.6520 H       2  LIG2        0.0235
     31    H      -71.6250  -89.3580   -5.4760 H       2  LIG2        0.0235
     32    H      -70.6670  -89.8300   -6.8280 H       2  LIG2        0.0235
     33    H      -72.4080  -89.8600   -6.9590 H       2  LIG2        0.0235
     34    H      -71.5200  -90.9230  -10.2690 H       2  LIG2        0.0268
     35    H      -71.3010  -90.3950  -11.9290 H       2  LIG2        0.0268
     36    H      -73.1520  -89.4920   -9.0560 H       2  LIG2        0.0233
     37    H      -73.7770  -89.3560  -10.6890 H       2  LIG2        0.0233
     38    H      -73.5430  -87.9100   -9.7270 H       2  LIG2        0.0233
     39    H      -67.3180  -90.0290   -7.8390 H       2  LIG2        0.0257
     40    H      -66.0310  -89.1540   -8.6510 H       2  LIG2        0.0257
     41    H      -66.9650  -90.3470   -9.5300 H       2  LIG2        0.0257
     42    H      -68.0270  -87.1130  -10.5940 H       2  LIG2        0.2102
@<TRIPOS>BOND
     1    35    14    1
     2    24    10    1
     3    23     8    1
     4    14    10    1
     5    14     8    1
     6    14    34    1
     7    37    15    1
     8    10    25    1
     9    10     6    1
    10    42     1    1
    11     8    15    1
    12     8     5    1
    13     1     9    1
    14    19     5    1
    15    15    38    1
    16    15    36    1
    17     5     6    1
    18     5     2    1
    19    41    16    1
    20     6     9    1
    21     6    20    1
    22     9    16    1
    23     9    11    1
    24    16    40    1
    25    16    39    1
    26    17     2    1
    27    26    11    1
    28     2     4    1
    29     2     3    1
    30    11    27    1
    31    11     7    1
    32     4     3    1
    33     4     7    1
    34     4    18    1
    35     3    13    1
    36     3    12    1
    37    33    13    1
    38     7    22    1
    39     7    21    1
    40    32    13    1
    41    29    12    1
    42    30    12    1
    43    13    31    1
    44    12    28    1
@<TRIPOS>MOLECULE
11996452_5_run_7.pdb
 42 44 0 0 0
SMALL
GASTEIGER

@<TRIPOS>ATOM
      1    O      -70.2820  -85.4090   -6.9290 O.3     2  LIG2       -0.3886
      2    C      -71.7900  -88.6610   -9.1850 C.3     2  LIG2       -0.0289
      3    C      -72.0090  -90.0970   -8.7430 C.3     2  LIG2       -0.0284
      4    C      -72.7110  -88.9800   -7.9850 C.3     2  LIG2       -0.0319
      5    C      -70.4950  -87.7880   -9.0680 C.3     2  LIG2       -0.0294
      6    C      -69.7170  -87.6780   -7.7300 C.3     2  LIG2       -0.0090
      7    C      -72.3310  -88.5480   -6.5470 C.3     2  LIG2       -0.0468
      8    C      -69.4350  -87.9760  -10.1950 C.3     2  LIG2       -0.0404
      9    C      -70.3910  -86.7920   -6.6300 C.3     2  LIG2        0.0664
     10    C      -68.3030  -87.2440   -8.1560 C.3     2  LIG2       -0.0471
     11    C      -71.9070  -87.0710   -6.4340 C.3     2  LIG2       -0.0237
     12    C      -72.8950  -90.9450   -9.6780 C.3     2  LIG2       -0.0593
     13    C      -70.9450  -90.9870   -8.0550 C.3     2  LIG2       -0.0593
     14    C      -68.0670  -87.9390   -9.4940 C.3     2  LIG2       -0.0498
     15    C      -69.5900  -89.2280  -11.0840 C.3     2  LIG2       -0.0621
     16    C      -69.6600  -86.9690   -5.2780 C.3     2  LIG2       -0.0358
     17    H      -72.3080  -88.3750  -10.1020 H       2  LIG2        0.0312
     18    H      -73.7890  -88.9130   -8.1370 H       2  LIG2        0.0309
     19    H      -70.8740  -86.7760   -9.2320 H       2  LIG2        0.0310
     20    H      -69.5830  -88.6640   -7.3100 H       2  LIG2        0.0331
     21    H      -73.2260  -88.6720   -5.9360 H       2  LIG2        0.0269
     22    H      -71.5970  -89.2010   -6.0810 H       2  LIG2        0.0269
     23    H      -69.4880  -87.1140  -10.8640 H       2  LIG2        0.0301
     24    H      -68.2330  -86.1630   -8.2830 H       2  LIG2        0.0269
     25    H      -67.5460  -87.5340   -7.4250 H       2  LIG2        0.0269
     26    H      -72.4940  -86.5050   -7.1620 H       2  LIG2        0.0293
     27    H      -72.2270  -86.6920   -5.4610 H       2  LIG2        0.0293
     28    H      -73.3760  -91.7570   -9.1340 H       2  LIG2        0.0235
     29    H      -72.3030  -91.3840  -10.4810 H       2  LIG2        0.0235
     30    H      -73.6860  -90.3580  -10.1440 H       2  LIG2        0.0235
     31    H      -71.4300  -91.8320   -7.5660 H       2  LIG2        0.0235
     32    H      -70.3570  -90.5150   -7.2820 H       2  LIG2        0.0235
     33    H      -70.2470  -91.4010   -8.7820 H       2  LIG2        0.0235
     34    H      -67.6870  -88.9470   -9.3250 H       2  LIG2        0.0268
     35    H      -67.3200  -87.4090  -10.0870 H       2  LIG2        0.0268
     36    H      -69.5140  -90.1480  -10.5080 H       2  LIG2        0.0233
     37    H      -68.8120  -89.2590  -11.8470 H       2  LIG2        0.0233
     38    H      -70.5480  -89.2340  -11.6040 H       2  LIG2        0.0233
     39    H      -69.7160  -88.0000   -4.9270 H       2  LIG2        0.0257
     40    H      -70.0850  -86.3390   -4.4950 H       2  LIG2        0.0257
     41    H      -68.6020  -86.7110   -5.3520 H       2  LIG2        0.0257
     42    H      -70.9110  -85.1980   -7.6220 H       2  LIG2        0.2102
@<TRIPOS>BOND
     1    37    15    1
     2    38    15    1
     3    15    36    1
     4    15     8    1
     5    23     8    1
     6    29    12    1
     7     8    14    1
     8     8     5    1
     9    30    12    1
    10    17     2    1
    11    35    14    1
    12    12    28    1
    13    12     3    1
    14    14    34    1
    15    14    10    1
    16    19     5    1
    17     2     5    1
    18     2     3    1
    19     2     4    1
    20     5     6    1
    21    33    13    1
    22     3    13    1
    23     3     4    1
    24    24    10    1
    25    10     6    1
    26    10    25    1
    27    18     4    1
    28    13    31    1
    29    13    32    1
    30     4     7    1
    31     6    20    1
    32     6     9    1
    33    42     1    1
    34    26    11    1
    35     1     9    1
    36     9    11    1
    37     9    16    1
    38     7    11    1
    39     7    22    1
    40     7    21    1
    41    11    27    1
    42    41    16    1
    43    16    39    1
    44    16    40    1
@<TRIPOS>MOLECULE
11996452_5_run_4.pdb
 42 44 0 0 0
SMALL
GASTEIGER

@<TRIPOS>ATOM
      1    O      -71.2720  -85.9300   -6.6790 O.3     2  LIG2       -0.3886
      2    C      -68.2130  -88.7640   -7.4200 C.3     2  LIG2       -0.0289
      3    C      -68.2190  -89.9280   -8.3950 C.3     2  LIG2       -0.0284
      4    C      -68.4450  -88.5210   -8.9290 C.3     2  LIG2       -0.0319
      5    C      -69.2670  -88.4060   -6.3180 C.3     2  LIG2       -0.0294
      6    C      -70.7840  -88.3530   -6.6430 C.3     2  LIG2       -0.0090
      7    C      -69.8080  -88.0120   -9.4570 C.3     2  LIG2       -0.0468
      8    C      -69.1200  -89.1530   -4.9580 C.3     2  LIG2       -0.0404
      9    C      -71.2520  -87.1090   -7.4690 C.3     2  LIG2        0.0664
     10    C      -71.4640  -88.5340   -5.2740 C.3     2  LIG2       -0.0471
     11    C      -70.3530  -86.7890   -8.6950 C.3     2  LIG2       -0.0237
     12    C      -66.8380  -90.5500   -8.6840 C.3     2  LIG2       -0.0593
     13    C      -69.3260  -91.0070   -8.4860 C.3     2  LIG2       -0.0593
     14    C      -70.5520  -89.4870   -4.5070 C.3     2  LIG2       -0.0498
     15    C      -68.2110  -90.4000   -4.9510 C.3     2  LIG2       -0.0621
     16    C      -72.7130  -87.3000   -7.9410 C.3     2  LIG2       -0.0358
     17    H      -67.2280  -88.4750   -7.0500 H       2  LIG2        0.0312
     18    H      -67.6230  -88.1000   -9.5100 H       2  LIG2        0.0309
     19    H      -69.0170  -87.3710   -6.0760 H       2  LIG2        0.0310
     20    H      -71.0630  -89.2330   -7.2030 H       2  LIG2        0.0331
     21    H      -69.6470  -87.7010  -10.4900 H       2  LIG2        0.0269
     22    H      -70.5610  -88.7940   -9.5280 H       2  LIG2        0.0269
     23    H      -68.6980  -88.4580   -4.2290 H       2  LIG2        0.0301
     24    H      -71.5490  -87.5890   -4.7360 H       2  LIG2        0.0269
     25    H      -72.4720  -88.9450   -5.3660 H       2  LIG2        0.0269
     26    H      -69.4950  -86.1850   -8.3890 H       2  LIG2        0.0293
     27    H      -70.9020  -86.1590   -9.3980 H       2  LIG2        0.0293
     28    H      -66.8200  -91.0300   -9.6630 H       2  LIG2        0.0235
     29    H      -66.5870  -91.3040   -7.9370 H       2  LIG2        0.0235
     30    H      -66.0390  -89.8090   -8.6750 H       2  LIG2        0.0235
     31    H      -69.2610  -91.5240   -9.4430 H       2  LIG2        0.0235
     32    H      -70.3440  -90.6500   -8.4280 H       2  LIG2        0.0235
     33    H      -69.2050  -91.7610   -7.7100 H       2  LIG2        0.0235
     34    H      -70.8080  -90.5190   -4.7500 H       2  LIG2        0.0268
     35    H      -70.6770  -89.3700   -3.4290 H       2  LIG2        0.0268
     36    H      -68.5740  -91.1720   -5.6260 H       2  LIG2        0.0233
     37    H      -68.1640  -90.8380   -3.9540 H       2  LIG2        0.0233
     38    H      -67.1900  -90.1520   -5.2400 H       2  LIG2        0.0233
     39    H      -72.8090  -88.1650   -8.5980 H       2  LIG2        0.0257
     40    H      -73.0830  -86.4340   -8.4940 H       2  LIG2        0.0257
     41    H      -73.3940  -87.4540   -7.1030 H       2  LIG2        0.0257
     42    H      -71.5390  -85.1960   -7.2360 H       2  LIG2        0.2102
@<TRIPOS>BOND
     1    21     7    1
     2    28    12    1
     3    22     7    1
     4    18     4    1
     5     7     4    1
     6     7    11    1
     7    31    13    1
     8    27    11    1
     9     4     3    1
    10     4     2    1
    11    11    26    1
    12    11     9    1
    13    12    30    1
    14    12     3    1
    15    12    29    1
    16    39    16    1
    17    40    16    1
    18    13    32    1
    19    13     3    1
    20    13    33    1
    21     3     2    1
    22    16     9    1
    23    16    41    1
    24     9     1    1
    25     9     6    1
    26     2    17    1
    27     2     5    1
    28    42     1    1
    29    20     6    1
    30     6     5    1
    31     6    10    1
    32     5    19    1
    33     5     8    1
    34    36    15    1
    35    25    10    1
    36    10    24    1
    37    10    14    1
    38    38    15    1
    39     8    15    1
    40     8    14    1
    41     8    23    1
    42    15    37    1
    43    34    14    1
    44    14    35    1
