@<TRIPOS>MOLECULE
11996452_9_run_6.pdb
 42 44 0 0 0
SMALL
GASTEIGER

@<TRIPOS>ATOM
      1    O      -65.0480  -78.6240  -12.2860 O.3     2  LIG2       -0.3886
      2    C      -63.3950  -80.2790  -14.1670 C.3     2  LIG2       -0.0289
      3    C      -62.9940  -81.7610  -14.1490 C.3     2  LIG2       -0.0284
      4    C      -63.5430  -81.1150  -12.8920 C.3     2  LIG2       -0.0319
      5    C      -62.5030  -78.9910  -14.1420 C.3     2  LIG2       -0.0294
      6    C      -62.9390  -77.8610  -13.1500 C.3     2  LIG2       -0.0090
      7    C      -62.7040  -80.6880  -11.6680 C.3     2  LIG2       -0.0468
      8    C      -60.9480  -79.0680  -14.1060 C.3     2  LIG2       -0.0404
      9    C      -63.7530  -78.2320  -11.8520 C.3     2  LIG2        0.0664
     10    C      -61.6510  -77.0380  -12.9380 C.3     2  LIG2       -0.0471
     11    C      -63.1880  -79.3940  -10.9750 C.3     2  LIG2       -0.0237
     12    C      -63.9470  -82.7050  -14.9120 C.3     2  LIG2       -0.0593
     13    C      -61.5490  -82.3130  -14.1560 C.3     2  LIG2       -0.0593
     14    C      -60.4920  -78.0160  -13.0840 C.3     2  LIG2       -0.0498
     15    C      -60.2820  -78.9070  -15.4870 C.3     2  LIG2       -0.0621
     16    C      -64.0370  -77.0060  -10.9490 C.3     2  LIG2       -0.0358
     17    H      -64.3330  -80.0470  -14.6750 H       2  LIG2        0.0312
     18    H      -64.5430  -81.4300  -12.5900 H       2  LIG2        0.0309
     19    H      -62.7180  -78.5550  -15.1210 H       2  LIG2        0.0310
     20    H      -63.6040  -77.1980  -13.7120 H       2  LIG2        0.0331
     21    H      -62.7080  -81.5010  -10.9410 H       2  LIG2        0.0269
     22    H      -61.6580  -80.5540  -11.9190 H       2  LIG2        0.0269
     23    H      -60.5990  -80.0080  -13.7140 H       2  LIG2        0.0301
     24    H      -61.5770  -76.2630  -13.7040 H       2  LIG2        0.0269
     25    H      -61.5990  -76.5270  -11.9780 H       2  LIG2        0.0269
     26    H      -63.9310  -79.6630  -10.2210 H       2  LIG2        0.0293
     27    H      -62.3410  -79.0100  -10.4040 H       2  LIG2        0.0293
     28    H      -63.9260  -83.7110  -14.4930 H       2  LIG2        0.0235
     29    H      -63.6670  -82.7720  -15.9620 H       2  LIG2        0.0235
     30    H      -64.9830  -82.3640  -14.8740 H       2  LIG2        0.0235
     31    H      -61.5540  -83.4020  -14.0910 H       2  LIG2        0.0235
     32    H      -60.9300  -81.9980  -13.3220 H       2  LIG2        0.0235
     33    H      -61.0390  -82.0550  -15.0840 H       2  LIG2        0.0235
     34    H      -60.2810  -78.4890  -12.1230 H       2  LIG2        0.0268
     35    H      -59.5790  -77.5010  -13.3870 H       2  LIG2        0.0268
     36    H      -60.5060  -77.9360  -15.9290 H       2  LIG2        0.0233
     37    H      -60.6270  -79.6760  -16.1790 H       2  LIG2        0.0233
     38    H      -59.1980  -78.9950  -15.4140 H       2  LIG2        0.0233
     39    H      -63.1440  -76.6740  -10.4190 H       2  LIG2        0.0257
     40    H      -64.7800  -77.2290  -10.1820 H       2  LIG2        0.0257
     41    H      -64.4120  -76.1590  -11.5250 H       2  LIG2        0.0257
     42    H      -65.4580  -77.8800  -12.7300 H       2  LIG2        0.2102
@<TRIPOS>BOND
     1    37    15    1
     2    29    12    1
     3    36    15    1
     4    15    38    1
     5    15     8    1
     6    19     5    1
     7    33    13    1
     8    12    30    1
     9    12    28    1
    10    12     3    1
    11    17     2    1
    12     2     3    1
    13     2     5    1
    14     2     4    1
    15    13     3    1
    16    13    31    1
    17    13    32    1
    18     3     4    1
    19     5     8    1
    20     5     6    1
    21     8    23    1
    22     8    14    1
    23    20     6    1
    24    24    10    1
    25    35    14    1
    26     6    10    1
    27     6     9    1
    28    14    10    1
    29    14    34    1
    30    10    25    1
    31     4    18    1
    32     4     7    1
    33    42     1    1
    34     1     9    1
    35    22     7    1
    36     9    11    1
    37     9    16    1
    38     7    11    1
    39     7    21    1
    40    41    16    1
    41    11    27    1
    42    11    26    1
    43    16    39    1
    44    16    40    1
@<TRIPOS>MOLECULE
11996452_9_run_19.pdb
 42 44 0 0 0
SMALL
GASTEIGER

@<TRIPOS>ATOM
      1    O      -67.6530  -87.4090   -9.8610 O.3     2  LIG2       -0.3886
      2    C      -69.1100  -87.1410   -7.2510 C.3     2  LIG2       -0.0289
      3    C      -68.8170  -87.6960   -5.8500 C.3     2  LIG2       -0.0284
      4    C      -68.1030  -88.2760   -7.0540 C.3     2  LIG2       -0.0319
      5    C      -70.3470  -87.3650   -8.1890 C.3     2  LIG2       -0.0294
      6    C      -70.0340  -87.6860   -9.6880 C.3     2  LIG2       -0.0090
      7    C      -68.4280  -89.6320   -7.7190 C.3     2  LIG2       -0.0468
      8    C      -71.5520  -88.2550   -7.7620 C.3     2  LIG2       -0.0404
      9    C      -68.6700  -88.3780  -10.0710 C.3     2  LIG2        0.0664
     10    C      -71.3180  -88.3790  -10.1930 C.3     2  LIG2       -0.0471
     11    C      -68.2730  -89.6490   -9.2560 C.3     2  LIG2       -0.0237
     12    C      -67.9910  -86.7660   -4.9390 C.3     2  LIG2       -0.0593
     13    C      -69.7580  -88.5960   -5.0120 C.3     2  LIG2       -0.0593
     14    C      -71.9120  -89.1020   -8.9910 C.3     2  LIG2       -0.0498
     15    C      -72.7460  -87.4620   -7.1950 C.3     2  LIG2       -0.0621
     16    C      -68.5580  -88.6900  -11.5840 C.3     2  LIG2       -0.0358
     17    H      -68.6680  -86.1690   -7.4790 H       2  LIG2        0.0312
     18    H      -67.0390  -88.0480   -7.1350 H       2  LIG2        0.0309
     19    H      -70.7720  -86.3600   -8.2360 H       2  LIG2        0.0310
     20    H      -70.0110  -86.7260  -10.2110 H       2  LIG2        0.0331
     21    H      -67.7800  -90.3960   -7.2880 H       2  LIG2        0.0269
     22    H      -69.4330  -89.9670   -7.4870 H       2  LIG2        0.0269
     23    H      -71.2790  -88.9680   -7.0030 H       2  LIG2        0.0301
     24    H      -72.0230  -87.6290  -10.5570 H       2  LIG2        0.0269
     25    H      -71.1580  -89.0740  -11.0150 H       2  LIG2        0.0269
     26    H      -67.2400  -89.9160   -9.4960 H       2  LIG2        0.0293
     27    H      -68.8670  -90.4890   -9.6210 H       2  LIG2        0.0293
     28    H      -67.4150  -87.3360   -4.2100 H       2  LIG2        0.0235
     29    H      -68.6390  -86.0800   -4.3940 H       2  LIG2        0.0235
     30    H      -67.2800  -86.1600   -5.5040 H       2  LIG2        0.0235
     31    H      -69.2790  -88.8820   -4.0750 H       2  LIG2        0.0235
     32    H      -70.0280  -89.5390   -5.4760 H       2  LIG2        0.0235
     33    H      -70.6720  -88.0630   -4.7500 H       2  LIG2        0.0235
     34    H      -71.4760  -90.1000   -8.9050 H       2  LIG2        0.0268
     35    H      -72.9880  -89.2400   -9.1090 H       2  LIG2        0.0268
     36    H      -73.1530  -86.7700   -7.9340 H       2  LIG2        0.0233
     37    H      -72.4480  -86.8810   -6.3220 H       2  LIG2        0.0233
     38    H      -73.5510  -88.1280   -6.8870 H       2  LIG2        0.0233
     39    H      -69.1850  -89.5320  -11.8760 H       2  LIG2        0.0257
     40    H      -67.5390  -88.9570  -11.8700 H       2  LIG2        0.0257
     41    H      -68.8500  -87.8340  -12.1950 H       2  LIG2        0.0257
     42    H      -67.9700  -86.5610  -10.1790 H       2  LIG2        0.2102
@<TRIPOS>BOND
     1    41    16    1
     2    39    16    1
     3    40    16    1
     4    16     9    1
     5    25    10    1
     6    24    10    1
     7    20     6    1
     8    10     6    1
     9    10    14    1
    10    42     1    1
    11     9     1    1
    12     9     6    1
    13     9    11    1
    14     6     5    1
    15    27    11    1
    16    26    11    1
    17    11     7    1
    18    35    14    1
    19    14    34    1
    20    14     8    1
    21    19     5    1
    22     5     8    1
    23     5     2    1
    24    36    15    1
    25     8    15    1
    26     8    23    1
    27     7    22    1
    28     7    21    1
    29     7     4    1
    30    17     2    1
    31     2     4    1
    32     2     3    1
    33    15    38    1
    34    15    37    1
    35    18     4    1
    36     4     3    1
    37     3    13    1
    38     3    12    1
    39    30    12    1
    40    32    13    1
    41    13    33    1
    42    13    31    1
    43    12    29    1
    44    12    28    1
@<TRIPOS>MOLECULE
11996452_9_run_19.pdb
 42 44 0 0 0
SMALL
GASTEIGER

@<TRIPOS>ATOM
      1    O      -66.7890  -88.8780   -5.9990 O.3     2  LIG2       -0.3886
      2    C      -68.8680  -89.1590   -8.1450 C.3     2  LIG2       -0.0289
      3    C      -68.9550  -88.5940   -9.5700 C.3     2  LIG2       -0.0284
      4    C      -67.9610  -88.0080   -8.5880 C.3     2  LIG2       -0.0319
      5    C      -69.8230  -88.9580   -6.9180 C.3     2  LIG2       -0.0294
      6    C      -69.1380  -88.6370   -5.5480 C.3     2  LIG2       -0.0090
      7    C      -68.1230  -86.6600   -7.8510 C.3     2  LIG2       -0.0468
      8    C      -71.1090  -88.0850   -7.0120 C.3     2  LIG2       -0.0404
      9    C      -67.7300  -87.9260   -5.5260 C.3     2  LIG2        0.0664
     10    C      -70.2560  -87.9660   -4.7230 C.3     2  LIG2       -0.0471
     11    C      -67.5750  -86.6460   -6.4060 C.3     2  LIG2       -0.0237
     12    C      -68.3790  -89.5090  -10.6710 C.3     2  LIG2       -0.0593
     13    C      -70.0920  -87.7060  -10.1300 C.3     2  LIG2       -0.0593
     14    C      -71.1510  -87.2480   -5.7250 C.3     2  LIG2       -0.0498
     15    C      -72.3980  -88.8950   -7.2570 C.3     2  LIG2       -0.0621
     16    C      -67.2350  -87.6180   -4.0910 C.3     2  LIG2       -0.0358
     17    H      -68.3680  -90.1240   -8.0470 H       2  LIG2        0.0312
     18    H      -66.9100  -88.2200   -8.7860 H       2  LIG2        0.0309
     19    H      -70.2070  -89.9700   -6.7700 H       2  LIG2        0.0310
     20    H      -68.9670  -89.5990   -5.0570 H       2  LIG2        0.0331
     21    H      -67.6190  -85.8840   -8.4290 H       2  LIG2        0.0269
     22    H      -69.1580  -86.3390   -7.8130 H       2  LIG2        0.0269
     23    H      -71.0520  -87.3650   -7.8110 H       2  LIG2        0.0301
     24    H      -70.8330  -88.7280   -4.1950 H       2  LIG2        0.0269
     25    H      -69.8990  -87.2720   -3.9660 H       2  LIG2        0.0269
     26    H      -66.5200  -86.3630   -6.4390 H       2  LIG2        0.0293
     27    H      -68.0670  -85.8170   -5.8940 H       2  LIG2        0.0293
     28    H      -68.0200  -88.9270  -11.5200 H       2  LIG2        0.0235
     29    H      -69.1360  -90.2020  -11.0360 H       2  LIG2        0.0235
     30    H      -67.5380  -90.1050  -10.3140 H       2  LIG2        0.0235
     31    H      -69.8760  -87.4090  -11.1560 H       2  LIG2        0.0235
     32    H      -70.2470  -86.7690   -9.6050 H       2  LIG2        0.0235
     33    H      -71.0360  -88.2520  -10.1510 H       2  LIG2        0.0235
     34    H      -70.7660  -86.2440   -5.9140 H       2  LIG2        0.0268
     35    H      -72.1620  -87.1270   -5.3320 H       2  LIG2        0.0268
     36    H      -72.5910  -89.5950   -6.4440 H       2  LIG2        0.0233
     37    H      -72.3280  -89.4680   -8.1820 H       2  LIG2        0.0233
     38    H      -73.2650  -88.2390   -7.3420 H       2  LIG2        0.0233
     39    H      -67.7770  -86.7870   -3.6400 H       2  LIG2        0.0257
     40    H      -66.1810  -87.3360   -4.0760 H       2  LIG2        0.0257
     41    H      -67.3480  -88.4800   -3.4320 H       2  LIG2        0.0257
     42    H      -66.0160  -88.4090   -6.3210 H       2  LIG2        0.2102
@<TRIPOS>BOND
     1    28    12    1
     2    31    13    1
     3    29    12    1
     4    12    30    1
     5    12     3    1
     6    33    13    1
     7    13    32    1
     8    13     3    1
     9     3     4    1
    10     3     2    1
    11    18     4    1
    12     4     2    1
    13     4     7    1
    14    21     7    1
    15    37    15    1
    16     2    17    1
    17     2     5    1
    18     7    22    1
    19     7    11    1
    20    23     8    1
    21    38    15    1
    22    15     8    1
    23    15    36    1
    24     8     5    1
    25     8    14    1
    26     5    19    1
    27     5     6    1
    28    26    11    1
    29    11    27    1
    30    11     9    1
    31    42     1    1
    32     1     9    1
    33    34    14    1
    34    14    35    1
    35    14    10    1
    36     6     9    1
    37     6    20    1
    38     6    10    1
    39     9    16    1
    40    10    24    1
    41    10    25    1
    42    16    40    1
    43    16    39    1
    44    16    41    1
@<TRIPOS>MOLECULE
11996452_9_run_20.pdb
 42 44 0 0 0
SMALL
GASTEIGER

@<TRIPOS>ATOM
      1    O      -70.0390  -85.8700   -8.3130 O.3     2  LIG2       -0.3886
      2    C      -69.0330  -88.2800   -9.7920 C.3     2  LIG2       -0.0289
      3    C      -69.6960  -89.2020  -10.8250 C.3     2  LIG2       -0.0284
      4    C      -70.5510  -88.2720   -9.9860 C.3     2  LIG2       -0.0319
      5    C      -68.4400  -88.6080   -8.3780 C.3     2  LIG2       -0.0294
      6    C      -68.8370  -87.6390   -7.2150 C.3     2  LIG2       -0.0090
      7    C      -71.4180  -88.7000   -8.7820 C.3     2  LIG2       -0.0468
      8    C      -68.4420  -90.0540   -7.8010 C.3     2  LIG2       -0.0404
      9    C      -70.1970  -86.8430   -7.2910 C.3     2  LIG2        0.0664
     10    C      -68.6050  -88.4760   -5.9400 C.3     2  LIG2       -0.0471
     11    C      -71.4770  -87.6690   -7.6320 C.3     2  LIG2       -0.0237
     12    C      -69.4770  -88.7970  -12.2970 C.3     2  LIG2       -0.0593
     13    C      -69.8780  -90.7330  -10.6950 C.3     2  LIG2       -0.0593
     14    C      -68.8650  -89.9260   -6.3300 C.3     2  LIG2       -0.0498
     15    C      -67.1100  -90.8060   -7.9910 C.3     2  LIG2       -0.0621
     16    C      -70.4650  -85.9900   -6.0260 C.3     2  LIG2       -0.0358
     17    H      -68.5140  -87.4090  -10.1970 H       2  LIG2        0.0312
     18    H      -71.0040  -87.4320  -10.5140 H       2  LIG2        0.0309
     19    H      -67.3800  -88.3900   -8.5280 H       2  LIG2        0.0310
     20    H      -68.0670  -86.8630   -7.1840 H       2  LIG2        0.0331
     21    H      -72.4320  -88.8960   -9.1340 H       2  LIG2        0.0269
     22    H      -71.0910  -89.6440   -8.3600 H       2  LIG2        0.0269
     23    H      -69.2000  -90.6700   -8.2560 H       2  LIG2        0.0301
     24    H      -67.5710  -88.3650   -5.6080 H       2  LIG2        0.0269
     25    H      -69.2310  -88.1910   -5.0960 H       2  LIG2        0.0269
     26    H      -72.3020  -86.9800   -7.8280 H       2  LIG2        0.0293
     27    H      -71.7800  -88.2160   -6.7380 H       2  LIG2        0.0293
     28    H      -70.3020  -89.1330  -12.9260 H       2  LIG2        0.0235
     29    H      -68.5580  -89.2320  -12.6870 H       2  LIG2        0.0235
     30    H      -69.4010  -87.7150  -12.4210 H       2  LIG2        0.0235
     31    H      -70.4240  -91.1280  -11.5530 H       2  LIG2        0.0235
     32    H      -70.4550  -91.0590   -9.8360 H       2  LIG2        0.0235
     33    H      -68.9120  -91.2380  -10.6760 H       2  LIG2        0.0235
     34    H      -69.9260  -90.1560   -6.2200 H       2  LIG2        0.0268
     35    H      -68.3260  -90.6110   -5.6740 H       2  LIG2        0.0268
     36    H      -66.2890  -90.2990   -7.4810 H       2  LIG2        0.0233
     37    H      -66.8510  -90.8800   -9.0480 H       2  LIG2        0.0233
     38    H      -67.1690  -91.8200   -7.5960 H       2  LIG2        0.0233
     39    H      -70.7530  -86.6040   -5.1720 H       2  LIG2        0.0257
     40    H      -71.2810  -85.2820   -6.1790 H       2  LIG2        0.0257
     41    H      -69.5870  -85.4130   -5.7350 H       2  LIG2        0.0257
     42    H      -70.8330  -85.3330   -8.3480 H       2  LIG2        0.2102
@<TRIPOS>BOND
     1    28    12    1
     2    29    12    1
     3    30    12    1
     4    12     3    1
     5    31    13    1
     6     3    13    1
     7     3     4    1
     8     3     2    1
     9    13    33    1
    10    13    32    1
    11    18     4    1
    12    17     2    1
    13     4     2    1
    14     4     7    1
    15     2     5    1
    16    21     7    1
    17    37    15    1
    18     7    22    1
    19     7    11    1
    20    19     5    1
    21     5     8    1
    22     5     6    1
    23    42     1    1
    24     1     9    1
    25    23     8    1
    26    15     8    1
    27    15    38    1
    28    15    36    1
    29    26    11    1
    30     8    14    1
    31    11     9    1
    32    11    27    1
    33     9     6    1
    34     9    16    1
    35     6    20    1
    36     6    10    1
    37    14    34    1
    38    14    10    1
    39    14    35    1
    40    40    16    1
    41    16    41    1
    42    16    39    1
    43    10    24    1
    44    10    25    1
@<TRIPOS>MOLECULE
11996452_9_run_12.pdb
 42 44 0 0 0
SMALL
GASTEIGER

@<TRIPOS>ATOM
      1    O      -67.0390  -87.3460   -8.3260 O.3     2  LIG2       -0.3886
      2    C      -68.9250  -89.3620   -9.5030 C.3     2  LIG2       -0.0289
      3    C      -69.9700  -89.2590  -10.6230 C.3     2  LIG2       -0.0284
      4    C      -69.4060  -87.9970  -10.0010 C.3     2  LIG2       -0.0319
      5    C      -69.0980  -89.7330   -7.9900 C.3     2  LIG2       -0.0294
      6    C      -68.3600  -88.8160   -6.9590 C.3     2  LIG2       -0.0090
      7    C      -70.1430  -87.0960   -8.9860 C.3     2  LIG2       -0.0468
      8    C      -70.4880  -90.0910   -7.3850 C.3     2  LIG2       -0.0404
      9    C      -68.0510  -87.3140   -7.3310 C.3     2  LIG2        0.0664
     10    C      -69.1280  -89.0500   -5.6400 C.3     2  LIG2       -0.0471
     11    C      -69.2360  -86.4730   -7.9010 C.3     2  LIG2       -0.0237
     12    C      -69.4560  -89.6240  -12.0310 C.3     2  LIG2       -0.0593
     13    C      -71.4800  -89.5690  -10.4900 C.3     2  LIG2       -0.0593
     14    C      -70.5650  -89.3640   -6.0350 C.3     2  LIG2       -0.0498
     15    C      -70.7530  -91.6060   -7.2800 C.3     2  LIG2       -0.0621
     16    C      -67.3860  -86.5330   -6.1710 C.3     2  LIG2       -0.0358
     17    H      -67.9160  -89.6360   -9.8180 H       2  LIG2        0.0312
     18    H      -68.7400  -87.4090  -10.6330 H       2  LIG2        0.0309
     19    H      -68.5400  -90.6710   -7.9280 H       2  LIG2        0.0310
     20    H      -67.3770  -89.2660   -6.7940 H       2  LIG2        0.0331
     21    H      -70.6450  -86.2950   -9.5310 H       2  LIG2        0.0269
     22    H      -70.9440  -87.6230   -8.4810 H       2  LIG2        0.0269
     23    H      -71.2980  -89.6850   -7.9660 H       2  LIG2        0.0301
     24    H      -68.6970  -89.9010   -5.1090 H       2  LIG2        0.0269
     25    H      -69.0980  -88.2090   -4.9490 H       2  LIG2        0.0269
     26    H      -68.8470  -85.5240   -8.2790 H       2  LIG2        0.0293
     27    H      -69.8880  -86.1940   -7.0720 H       2  LIG2        0.0293
     28    H      -70.0170  -89.0990  -12.8050 H       2  LIG2        0.0235
     29    H      -69.5500  -90.6940  -12.2140 H       2  LIG2        0.0235
     30    H      -68.4050  -89.3630  -12.1670 H       2  LIG2        0.0235
     31    H      -71.9970  -89.3670  -11.4290 H       2  LIG2        0.0235
     32    H      -72.0110  -88.9710   -9.7560 H       2  LIG2        0.0235
     33    H      -71.6420  -90.6230  -10.2610 H       2  LIG2        0.0235
     34    H      -71.1340  -88.4380   -6.1350 H       2  LIG2        0.0268
     35    H      -71.0620  -89.9560   -5.2640 H       2  LIG2        0.0268
     36    H      -70.0280  -92.0950   -6.6290 H       2  LIG2        0.0233
     37    H      -70.6960  -92.0810   -8.2600 H       2  LIG2        0.0233
     38    H      -71.7470  -91.8050   -6.8770 H       2  LIG2        0.0233
     39    H      -68.0940  -86.2980   -5.3760 H       2  LIG2        0.0257
     40    H      -66.9770  -85.5780   -6.5050 H       2  LIG2        0.0257
     41    H      -66.5650  -87.0960   -5.7240 H       2  LIG2        0.0257
     42    H      -66.2310  -87.6770   -7.9290 H       2  LIG2        0.2102
@<TRIPOS>BOND
     1    28    12    1
     2    29    12    1
     3    30    12    1
     4    12     3    1
     5    31    13    1
     6    18     4    1
     7     3    13    1
     8     3     4    1
     9     3     2    1
    10    13    33    1
    11    13    32    1
    12     4     2    1
    13     4     7    1
    14    17     2    1
    15    21     7    1
    16     2     5    1
    17     7    22    1
    18     7    11    1
    19     1    42    1
    20     1     9    1
    21    26    11    1
    22    37    15    1
    23     5    19    1
    24     5     8    1
    25     5     6    1
    26    23     8    1
    27    11     9    1
    28    11    27    1
    29     8    15    1
    30     8    14    1
    31     9     6    1
    32     9    16    1
    33    15    38    1
    34    15    36    1
    35     6    20    1
    36     6    10    1
    37    40    16    1
    38    16    41    1
    39    16    39    1
    40    34    14    1
    41    14    10    1
    42    14    35    1
    43    10    24    1
    44    10    25    1
@<TRIPOS>MOLECULE
11996452_9_run_24.pdb
 42 44 0 0 0
SMALL
GASTEIGER

@<TRIPOS>ATOM
      1    O      -55.9740  -73.6590   -6.7480 O.3     2  LIG2       -0.3886
      2    C      -58.5390  -72.7840   -8.0370 C.3     2  LIG2       -0.0289
      3    C      -58.9970  -71.4300   -8.5970 C.3     2  LIG2       -0.0284
      4    C      -57.7840  -71.4980   -7.6910 C.3     2  LIG2       -0.0319
      5    C      -59.1420  -73.6560   -6.8820 C.3     2  LIG2       -0.0294
      6    C      -58.1250  -74.2350   -5.8420 C.3     2  LIG2       -0.0090
      7    C      -57.7540  -71.0760   -6.2060 C.3     2  LIG2       -0.0468
      8    C      -60.4120  -73.2150   -6.0960 C.3     2  LIG2       -0.0404
      9    C      -56.7630  -73.4830   -5.5800 C.3     2  LIG2        0.0664
     10    C      -58.9930  -74.5310   -4.6010 C.3     2  LIG2       -0.0471
     11    C      -56.8480  -71.9480   -5.3060 C.3     2  LIG2       -0.0237
     12    C      -58.7240  -71.2200  -10.1010 C.3     2  LIG2       -0.0593
     13    C      -60.2440  -70.6330   -8.1460 C.3     2  LIG2       -0.0593
     14    C      -60.1210  -73.5070   -4.6170 C.3     2  LIG2       -0.0498
     15    C      -61.7170  -73.8620   -6.6020 C.3     2  LIG2       -0.0621
     16    C      -55.9130  -74.1500   -4.4710 C.3     2  LIG2       -0.0358
     17    H      -58.0270  -73.4410   -8.7420 H       2  LIG2        0.0312
     18    H      -56.8190  -71.3170   -8.1670 H       2  LIG2        0.0309
     19    H      -59.4700  -74.5450   -7.4260 H       2  LIG2        0.0310
     20    H      -57.8280  -75.2180   -6.2170 H       2  LIG2        0.0331
     21    H      -57.4210  -70.0390   -6.1440 H       2  LIG2        0.0269
     22    H      -58.7440  -71.0690   -5.7650 H       2  LIG2        0.0269
     23    H      -60.5680  -72.1510   -6.1450 H       2  LIG2        0.0301
     24    H      -59.4090  -75.5380   -4.6740 H       2  LIG2        0.0269
     25    H      -58.4540  -74.4890   -3.6570 H       2  LIG2        0.0269
     26    H      -55.8400  -71.5290   -5.3210 H       2  LIG2        0.0293
     27    H      -57.1930  -71.8020   -4.2810 H       2  LIG2        0.0293
     28    H      -58.6000  -70.1620  -10.3360 H       2  LIG2        0.0235
     29    H      -59.5470  -71.6040  -10.7020 H       2  LIG2        0.0235
     30    H      -57.8160  -71.7280  -10.4310 H       2  LIG2        0.0235
     31    H      -60.3040  -69.6830   -8.6780 H       2  LIG2        0.0235
     32    H      -60.2610  -70.3560   -7.0970 H       2  LIG2        0.0235
     33    H      -61.1580  -71.1820   -8.3750 H       2  LIG2        0.0235
     34    H      -59.8030  -72.5950   -4.1070 H       2  LIG2        0.0268
     35    H      -60.9950  -73.8780   -4.0790 H       2  LIG2        0.0268
     36    H      -61.6880  -74.9490   -6.5050 H       2  LIG2        0.0233
     37    H      -61.8880  -73.6250   -7.6520 H       2  LIG2        0.0233
     38    H      -62.5790  -73.5030   -6.0400 H       2  LIG2        0.0233
     39    H      -56.3220  -73.9700   -3.4770 H       2  LIG2        0.0257
     40    H      -54.8920  -73.7640   -4.4530 H       2  LIG2        0.0257
     41    H      -55.8460  -75.2300   -4.6080 H       2  LIG2        0.0257
     42    H      -55.9040  -74.5980   -6.9290 H       2  LIG2        0.2102
@<TRIPOS>BOND
     1    29    12    1
     2    30    12    1
     3    28    12    1
     4    12     3    1
     5    17     2    1
     6    31    13    1
     7     3    13    1
     8     3     2    1
     9     3     4    1
    10    33    13    1
    11    18     4    1
    12    13    32    1
    13     2     4    1
    14     2     5    1
    15     4     7    1
    16    37    15    1
    17    19     5    1
    18    42     1    1
    19     5     8    1
    20     5     6    1
    21     1     9    1
    22    15    36    1
    23    15     8    1
    24    15    38    1
    25    20     6    1
    26     7    21    1
    27     7    22    1
    28     7    11    1
    29    23     8    1
    30     8    14    1
    31     6     9    1
    32     6    10    1
    33     9    11    1
    34     9    16    1
    35    26    11    1
    36    11    27    1
    37    24    10    1
    38    14    10    1
    39    14    34    1
    40    14    35    1
    41    41    16    1
    42    10    25    1
    43    16    40    1
    44    16    39    1
@<TRIPOS>MOLECULE
11996452_9_run_6.pdb
 42 44 0 0 0
SMALL
GASTEIGER

@<TRIPOS>ATOM
      1    O      -72.3670  -85.9090   -6.4290 O.3     2  LIG2       -0.3886
      2    C      -71.3830  -87.5600   -8.7340 C.3     2  LIG2       -0.0289
      3    C      -71.8640  -88.8960   -9.3180 C.3     2  LIG2       -0.0284
      4    C      -72.3270  -88.4680   -7.9410 C.3     2  LIG2       -0.0319
      5    C      -69.9970  -87.1680   -8.1170 C.3     2  LIG2       -0.0294
      6    C      -70.0340  -86.3740   -6.7690 C.3     2  LIG2       -0.0090
      7    C      -71.8020  -89.0360   -6.6050 C.3     2  LIG2       -0.0468
      8    C      -68.8190  -88.1830   -8.0280 C.3     2  LIG2       -0.0404
      9    C      -71.2640  -86.5420   -5.7970 C.3     2  LIG2        0.0664
     10    C      -68.6390  -86.6200   -6.1560 C.3     2  LIG2       -0.0471
     11    C      -71.7000  -88.0030   -5.4600 C.3     2  LIG2       -0.0237
     12    C      -72.8930  -88.7760  -10.4610 C.3     2  LIG2       -0.0593
     13    C      -71.0140  -90.1800   -9.4740 C.3     2  LIG2       -0.0593
     14    C      -68.2020  -87.9990   -6.6340 C.3     2  LIG2       -0.0498
     15    C      -67.7940  -88.0540   -9.1730 C.3     2  LIG2       -0.0621
     16    C      -71.1030  -85.7440   -4.4800 C.3     2  LIG2       -0.0358
     17    H      -71.8490  -86.6650   -9.1490 H       2  LIG2        0.0312
     18    H      -73.3770  -88.1810   -7.8560 H       2  LIG2        0.0309
     19    H      -69.6420  -86.4220   -8.8320 H       2  LIG2        0.0310
     20    H      -70.0380  -85.3130   -7.0360 H       2  LIG2        0.0331
     21    H      -72.4570  -89.8500   -6.2890 H       2  LIG2        0.0269
     22    H      -70.8280  -89.5010   -6.7150 H       2  LIG2        0.0269
     23    H      -69.1630  -89.2030   -8.0490 H       2  LIG2        0.0301
     24    H      -67.9380  -85.8660   -6.5190 H       2  LIG2        0.0269
     25    H      -68.6110  -86.5680   -5.0700 H       2  LIG2        0.0269
     26    H      -72.6570  -87.9750   -4.9330 H       2  LIG2        0.0293
     27    H      -70.9960  -88.4110   -4.7330 H       2  LIG2        0.0293
     28    H      -73.5400  -89.6530  -10.5040 H       2  LIG2        0.0235
     29    H      -72.3940  -88.6790  -11.4250 H       2  LIG2        0.0235
     30    H      -73.5420  -87.9060  -10.3430 H       2  LIG2        0.0235
     31    H      -71.6200  -90.9940   -9.8740 H       2  LIG2        0.0235
     32    H      -70.6050  -90.5780   -8.5520 H       2  LIG2        0.0235
     33    H      -70.1950  -90.0200  -10.1760 H       2  LIG2        0.0235
     34    H      -68.5750  -88.7650   -5.9510 H       2  LIG2        0.0268
     35    H      -67.1140  -88.0860   -6.6390 H       2  LIG2        0.0268
     36    H      -67.3200  -87.0710   -9.1760 H       2  LIG2        0.0233
     37    H      -68.2720  -88.1980  -10.1420 H       2  LIG2        0.0233
     38    H      -67.0060  -88.8010   -9.0820 H       2  LIG2        0.0233
     39    H      -70.3780  -86.2040   -3.8080 H       2  LIG2        0.0257
     40    H      -72.0390  -85.6860   -3.9220 H       2  LIG2        0.0257
     41    H      -70.7740  -84.7200   -4.6650 H       2  LIG2        0.0257
     42    H      -72.0390  -85.1730   -6.9490 H       2  LIG2        0.2102
@<TRIPOS>BOND
     1    29    12    1
     2    28    12    1
     3    12    30    1
     4    12     3    1
     5    33    13    1
     6    37    15    1
     7    31    13    1
     8    13     3    1
     9    13    32    1
    10     3     2    1
    11     3     4    1
    12    36    15    1
    13    15    38    1
    14    15     8    1
    15    17     2    1
    16    19     5    1
    17     2     5    1
    18     2     4    1
    19     5     8    1
    20     5     6    1
    21    23     8    1
    22     8    14    1
    23     4    18    1
    24     4     7    1
    25    20     6    1
    26    42     1    1
    27     6    10    1
    28     6     9    1
    29    22     7    1
    30    35    14    1
    31    14    10    1
    32    14    34    1
    33     7    21    1
    34     7    11    1
    35    24    10    1
    36     1     9    1
    37    10    25    1
    38     9    11    1
    39     9    16    1
    40    11    26    1
    41    11    27    1
    42    41    16    1
    43    16    40    1
    44    16    39    1
@<TRIPOS>MOLECULE
11996452_9_run_21.pdb
 42 44 0 0 0
SMALL
GASTEIGER

@<TRIPOS>ATOM
      1    O      -67.4940  -88.9750   -6.9470 O.3     2  LIG2       -0.3886
      2    C      -69.0380  -90.0380   -9.2900 C.3     2  LIG2       -0.0289
      3    C      -68.7150  -90.1010  -10.7900 C.3     2  LIG2       -0.0284
      4    C      -67.9050  -89.1970   -9.8820 C.3     2  LIG2       -0.0319
      5    C      -70.2140  -89.3250   -8.5390 C.3     2  LIG2       -0.0294
      6    C      -69.8280  -88.4960   -7.2680 C.3     2  LIG2       -0.0090
      7    C      -68.0470  -87.6620   -9.7930 C.3     2  LIG2       -0.0468
      8    C      -71.3120  -88.5250   -9.3000 C.3     2  LIG2       -0.0404
      9    C      -68.3800  -87.8830   -7.1470 C.3     2  LIG2        0.0664
     10    C      -71.0040  -87.5120   -7.0960 C.3     2  LIG2       -0.0471
     11    C      -67.8520  -87.0780   -8.3750 C.3     2  LIG2       -0.0237
     12    C      -68.0310  -91.4020  -11.2570 C.3     2  LIG2       -0.0593
     13    C      -69.5590  -89.4820  -11.9290 C.3     2  LIG2       -0.0593
     14    C      -71.5360  -87.2360   -8.4970 C.3     2  LIG2       -0.0498
     15    C      -72.6080  -89.3230   -9.5500 C.3     2  LIG2       -0.0621
     16    C      -68.1930  -87.0330   -5.8650 C.3     2  LIG2       -0.0358
     17    H      -68.7120  -90.8960   -8.6980 H       2  LIG2        0.0312
     18    H      -66.8750  -89.5050   -9.6950 H       2  LIG2        0.0309
     19    H      -70.7570  -90.1760   -8.1210 H       2  LIG2        0.0310
     20    H      -69.9090  -89.1800   -6.4180 H       2  LIG2        0.0331
     21    H      -67.3210  -87.2050  -10.4670 H       2  LIG2        0.0269
     22    H      -69.0080  -87.3200  -10.1590 H       2  LIG2        0.0269
     23    H      -70.9740  -88.1950  -10.2680 H       2  LIG2        0.0301
     24    H      -71.7870  -87.9740   -6.4910 H       2  LIG2        0.0269
     25    H      -70.7400  -86.5810   -6.5990 H       2  LIG2        0.0269
     26    H      -66.7890  -86.8670   -8.2320 H       2  LIG2        0.0293
     27    H      -68.3300  -86.0970   -8.3730 H       2  LIG2        0.0293
     28    H      -67.4090  -91.2280  -12.1350 H       2  LIG2        0.0235
     29    H      -68.7710  -92.1590  -11.5140 H       2  LIG2        0.0235
     30    H      -67.3850  -91.8280  -10.4870 H       2  LIG2        0.0235
     31    H      -69.0730  -89.6350  -12.8930 H       2  LIG2        0.0235
     32    H      -69.7020  -88.4080  -11.8680 H       2  LIG2        0.0235
     33    H      -70.5380  -89.9580  -11.9900 H       2  LIG2        0.0235
     34    H      -70.9840  -86.4080   -8.9480 H       2  LIG2        0.0268
     35    H      -72.5840  -86.9330   -8.4660 H       2  LIG2        0.0268
     36    H      -73.0780  -89.6250   -8.6130 H       2  LIG2        0.0233
     37    H      -72.4050  -90.2250  -10.1280 H       2  LIG2        0.0233
     38    H      -73.3330  -88.7310  -10.1080 H       2  LIG2        0.0233
     39    H      -68.7060  -86.0740   -5.9320 H       2  LIG2        0.0257
     40    H      -67.1420  -86.8040   -5.6790 H       2  LIG2        0.0257
     41    H      -68.5720  -87.5480   -4.9810 H       2  LIG2        0.0257
     42    H      -66.5940  -88.6450   -6.9690 H       2  LIG2        0.2102
@<TRIPOS>BOND
     1    31    13    1
     2    28    12    1
     3    33    13    1
     4    13    32    1
     5    13     3    1
     6    29    12    1
     7    12     3    1
     8    12    30    1
     9     3     4    1
    10     3     2    1
    11    21     7    1
    12    23     8    1
    13    22     7    1
    14    37    15    1
    15    38    15    1
    16     4     7    1
    17     4    18    1
    18     4     2    1
    19     7    11    1
    20    15     8    1
    21    15    36    1
    22     8     5    1
    23     8    14    1
    24     2    17    1
    25     2     5    1
    26    34    14    1
    27     5    19    1
    28     5     6    1
    29    14    35    1
    30    14    10    1
    31    11    27    1
    32    11    26    1
    33    11     9    1
    34     6     9    1
    35     6    10    1
    36     6    20    1
    37     9     1    1
    38     9    16    1
    39    10    25    1
    40    10    24    1
    41    42     1    1
    42    39    16    1
    43    16    40    1
    44    16    41    1
@<TRIPOS>MOLECULE
11996452_9_run_16.pdb
 42 44 0 0 0
SMALL
GASTEIGER

@<TRIPOS>ATOM
      1    O      -64.5170  -82.0270  -13.1990 O.3     2  LIG2       -0.3886
      2    C      -63.6100  -79.2700  -12.4350 C.3     2  LIG2       -0.0289
      3    C      -64.1850  -77.8790  -12.7390 C.3     2  LIG2       -0.0284
      4    C      -64.6500  -79.0780  -13.5420 C.3     2  LIG2       -0.0319
      5    C      -62.2140  -79.8860  -12.7900 C.3     2  LIG2       -0.0294
      6    C      -62.2220  -81.3350  -13.3810 C.3     2  LIG2       -0.0090
      7    C      -64.2130  -79.4100  -14.9850 C.3     2  LIG2       -0.0468
      8    C      -61.1290  -79.0750  -13.5590 C.3     2  LIG2       -0.0404
      9    C      -63.4890  -81.8530  -14.1640 C.3     2  LIG2        0.0664
     10    C      -60.8710  -81.4410  -14.1200 C.3     2  LIG2       -0.0471
     11    C      -64.0560  -80.9190  -15.2800 C.3     2  LIG2       -0.0237
     12    C      -65.1680  -77.3330  -11.6820 C.3     2  LIG2       -0.0593
     13    C      -63.4430  -76.7230  -13.4510 C.3     2  LIG2       -0.0593
     14    C      -60.5390  -80.0350  -14.6020 C.3     2  LIG2       -0.0498
     15    C      -60.0650  -78.4330  -12.6480 C.3     2  LIG2       -0.0621
     16    C      -63.2980  -83.2770  -14.7420 C.3     2  LIG2       -0.0358
     17    H      -63.9870  -79.7520  -11.5310 H       2  LIG2        0.0312
     18    H      -65.6730  -79.4090  -13.3580 H       2  LIG2        0.0309
     19    H      -61.7770  -80.0270  -11.7990 H       2  LIG2        0.0310
     20    H      -62.1290  -82.0150  -12.5290 H       2  LIG2        0.0331
     21    H      -64.9430  -78.9880  -15.6770 H       2  LIG2        0.0269
     22    H      -63.2790  -78.9260  -15.2490 H       2  LIG2        0.0269
     23    H      -61.5570  -78.2700  -14.1330 H       2  LIG2        0.0301
     24    H      -60.0980  -81.7850  -13.4290 H       2  LIG2        0.0269
     25    H      -60.8700  -82.1400  -14.9540 H       2  LIG2        0.0269
     26    H      -65.0220  -81.3080  -15.6110 H       2  LIG2        0.0293
     27    H      -63.4100  -81.0010  -16.1550 H       2  LIG2        0.0293
     28    H      -65.8850  -76.6430  -12.1280 H       2  LIG2        0.0235
     29    H      -64.6350  -76.8020  -10.8950 H       2  LIG2        0.0235
     30    H      -65.7440  -78.1280  -11.2050 H       2  LIG2        0.0235
     31    H      -64.1040  -75.8650  -13.5780 H       2  LIG2        0.0235
     32    H      -63.0950  -76.9460  -14.4540 H       2  LIG2        0.0235
     33    H      -62.5940  -76.3830  -12.8570 H       2  LIG2        0.0235
     34    H      -60.9950  -79.8600  -15.5790 H       2  LIG2        0.0268
     35    H      -59.4630  -79.9090  -14.7320 H       2  LIG2        0.0268
     36    H      -59.5090  -79.1870  -12.0890 H       2  LIG2        0.0233
     37    H      -60.5250  -77.7550  -11.9290 H       2  LIG2        0.0233
     38    H      -59.3450  -77.8550  -13.2290 H       2  LIG2        0.0233
     39    H      -62.6350  -83.2820  -15.6070 H       2  LIG2        0.0257
     40    H      -64.2420  -83.7070  -15.0820 H       2  LIG2        0.0257
     41    H      -62.8800  -83.9600  -14.0020 H       2  LIG2        0.0257
     42    H      -65.3120  -82.3160  -13.6500 H       2  LIG2        0.2102
@<TRIPOS>BOND
     1    27    11    1
     2    21     7    1
     3    26    11    1
     4    39    16    1
     5    34    14    1
     6    11     7    1
     7    11     9    1
     8    22     7    1
     9    40    16    1
    10     7     4    1
    11    25    10    1
    12    16     9    1
    13    16    41    1
    14    35    14    1
    15    14    10    1
    16    14     8    1
    17    32    13    1
    18     9     6    1
    19     9     1    1
    20    23     8    1
    21    10    24    1
    22    10     6    1
    23    42     1    1
    24    31    13    1
    25     8     5    1
    26     8    15    1
    27     4    18    1
    28     4     3    1
    29     4     2    1
    30    13    33    1
    31    13     3    1
    32     6     5    1
    33     6    20    1
    34    38    15    1
    35     5     2    1
    36     5    19    1
    37     3     2    1
    38     3    12    1
    39    15    36    1
    40    15    37    1
    41     2    17    1
    42    28    12    1
    43    12    30    1
    44    12    29    1
@<TRIPOS>MOLECULE
11996452_9_run_2.pdb
 42 44 0 0 0
SMALL
GASTEIGER

@<TRIPOS>ATOM
      1    O      -60.8890  -77.6840  -14.6610 O.3     2  LIG2       -0.3886
      2    C      -61.8320  -80.3090  -13.5530 C.3     2  LIG2       -0.0289
      3    C      -62.6290  -81.4610  -14.1800 C.3     2  LIG2       -0.0284
      4    C      -62.5940  -80.1090  -14.8650 C.3     2  LIG2       -0.0319
      5    C      -62.1700  -79.3990  -12.3220 C.3     2  LIG2       -0.0294
      6    C      -61.9470  -77.8610  -12.5100 C.3     2  LIG2       -0.0090
      7    C      -63.7430  -79.0780  -14.8630 C.3     2  LIG2       -0.0468
      8    C      -63.4780  -79.5830  -11.4980 C.3     2  LIG2       -0.0404
      9    C      -62.0330  -77.2300  -13.9530 C.3     2  LIG2        0.0664
     10    C      -62.8440  -77.2220  -11.4290 C.3     2  LIG2       -0.0471
     11    C      -63.2840  -77.6020  -14.8100 C.3     2  LIG2       -0.0237
     12    C      -61.7740  -82.5780  -14.8140 C.3     2  LIG2       -0.0593
     13    C      -63.9760  -82.0230  -13.6650 C.3     2  LIG2       -0.0593
     14    C      -64.0220  -78.1700  -11.2390 C.3     2  LIG2       -0.0498
     15    C      -63.2970  -80.4130  -10.2120 C.3     2  LIG2       -0.0621
     16    C      -61.8620  -75.6910  -13.9470 C.3     2  LIG2       -0.0358
     17    H      -60.7470  -80.3700  -13.6570 H       2  LIG2        0.0312
     18    H      -62.0260  -80.0580  -15.7950 H       2  LIG2        0.0309
     19    H      -61.3810  -79.6770  -11.6190 H       2  LIG2        0.0310
     20    H      -60.9240  -77.6560  -12.1820 H       2  LIG2        0.0331
     21    H      -64.3490  -79.2280  -15.7590 H       2  LIG2        0.0269
     22    H      -64.4320  -79.2370  -14.0410 H       2  LIG2        0.0269
     23    H      -64.2480  -80.0770  -12.0660 H       2  LIG2        0.0301
     24    H      -62.2890  -77.1340  -10.4930 H       2  LIG2        0.0269
     25    H      -63.1970  -76.2220  -11.6730 H       2  LIG2        0.0269
     26    H      -63.1320  -77.2510  -15.8330 H       2  LIG2        0.0293
     27    H      -64.1340  -77.0250  -14.4430 H       2  LIG2        0.0293
     28    H      -62.3090  -83.0740  -15.6230 H       2  LIG2        0.0235
     29    H      -61.5100  -83.3320  -14.0730 H       2  LIG2        0.0235
     30    H      -60.8420  -82.1960  -15.2340 H       2  LIG2        0.0235
     31    H      -64.3420  -82.8080  -14.3280 H       2  LIG2        0.0235
     32    H      -64.7890  -81.3060  -13.6220 H       2  LIG2        0.0235
     33    H      -63.8570  -82.4720  -12.6790 H       2  LIG2        0.0235
     34    H      -64.8110  -77.9310  -11.9550 H       2  LIG2        0.0268
     35    H      -64.4570  -78.0600  -10.2450 H       2  LIG2        0.0268
     36    H      -62.5950  -79.9380   -9.5250 H       2  LIG2        0.0233
     37    H      -62.9170  -81.4090  -10.4410 H       2  LIG2        0.0233
     38    H      -64.2430  -80.5360   -9.6850 H       2  LIG2        0.0233
     39    H      -62.7450  -75.1820  -13.5600 H       2  LIG2        0.0257
     40    H      -61.7000  -75.2960  -14.9510 H       2  LIG2        0.0257
     41    H      -61.0110  -75.3820  -13.3380 H       2  LIG2        0.0257
     42    H      -60.9390  -77.3580  -15.5620 H       2  LIG2        0.2102
@<TRIPOS>BOND
     1    26    11    1
     2    18     4    1
     3    21     7    1
     4    28    12    1
     5    42     1    1
     6    30    12    1
     7    40    16    1
     8     4     7    1
     9     4     3    1
    10     4     2    1
    11     7    11    1
    12     7    22    1
    13    12     3    1
    14    12    29    1
    15    11    27    1
    16    11     9    1
    17     1     9    1
    18    31    13    1
    19     3    13    1
    20     3     2    1
    21     9    16    1
    22     9     6    1
    23    16    39    1
    24    16    41    1
    25    13    32    1
    26    13    33    1
    27    17     2    1
    28     2     5    1
    29     6     5    1
    30     6    20    1
    31     6    10    1
    32     5    19    1
    33     5     8    1
    34    23     8    1
    35    34    14    1
    36    25    10    1
    37     8    14    1
    38     8    15    1
    39    10    14    1
    40    10    24    1
    41    14    35    1
    42    37    15    1
    43    15    38    1
    44    15    36    1
