@<TRIPOS>MOLECULE
11996452_3_run_10.pdb
 42 44 0 0 0
SMALL
GASTEIGER

@<TRIPOS>ATOM
      1    O      -67.1490  -87.1590   -9.9670 O.3     2  LIG2       -0.3886
      2    C      -71.2620  -87.4610   -8.0000 C.3     2  LIG2       -0.0289
      3    C      -71.6290  -87.7850   -6.5620 C.3     2  LIG2       -0.0284
      4    C      -70.4470  -86.8800   -6.8390 C.3     2  LIG2       -0.0319
      5    C      -70.5940  -88.4770   -8.9620 C.3     2  LIG2       -0.0294
      6    C      -69.4370  -87.8640   -9.7910 C.3     2  LIG2       -0.0090
      7    C      -68.9750  -87.3030   -6.6450 C.3     2  LIG2       -0.0468
      8    C      -71.6000  -89.0730   -9.9840 C.3     2  LIG2       -0.0404
      9    C      -68.0470  -87.7890   -9.0680 C.3     2  LIG2        0.0664
     10    C      -69.4550  -88.6730  -11.1030 C.3     2  LIG2       -0.0471
     11    C      -68.0510  -86.8780   -7.8060 C.3     2  LIG2       -0.0237
     12    C      -72.9010  -87.1140   -6.0110 C.3     2  LIG2       -0.0593
     13    C      -71.4360  -89.2030   -5.9780 C.3     2  LIG2       -0.0593
     14    C      -70.9220  -89.0040  -11.3630 C.3     2  LIG2       -0.0498
     15    C      -72.1030  -90.4790   -9.6100 C.3     2  LIG2       -0.0621
     16    C      -67.4010  -89.1600   -8.7370 C.3     2  LIG2       -0.0358
     17    H      -71.8870  -86.7480   -8.5400 H       2  LIG2        0.0312
     18    H      -70.5870  -85.8300   -6.5770 H       2  LIG2        0.0309
     19    H      -70.1720  -89.3080   -8.4050 H       2  LIG2        0.0310
     20    H      -69.7250  -86.8430  -10.0550 H       2  LIG2        0.0331
     21    H      -68.6170  -86.8130   -5.7380 H       2  LIG2        0.0269
     22    H      -68.8660  -88.3670   -6.4500 H       2  LIG2        0.0269
     23    H      -72.4780  -88.4270  -10.0410 H       2  LIG2        0.0301
     24    H      -69.0240  -88.1120  -11.9330 H       2  LIG2        0.0269
     25    H      -68.8890  -89.6000  -11.0130 H       2  LIG2        0.0269
     26    H      -68.3190  -85.8580   -8.0890 H       2  LIG2        0.0293
     27    H      -67.0330  -86.8100   -7.4120 H       2  LIG2        0.0293
     28    H      -72.8540  -87.0190   -4.9260 H       2  LIG2        0.0235
     29    H      -73.7890  -87.6970   -6.2590 H       2  LIG2        0.0235
     30    H      -73.0470  -86.1130   -6.4180 H       2  LIG2        0.0235
     31    H      -71.3500  -89.1600   -4.8910 H       2  LIG2        0.0235
     32    H      -70.5540  -89.7250   -6.3390 H       2  LIG2        0.0235
     33    H      -72.2930  -89.8350   -6.2130 H       2  LIG2        0.0235
     34    H      -71.0190  -89.9320  -11.9290 H       2  LIG2        0.0268
     35    H      -71.3800  -88.2180  -11.9650 H       2  LIG2        0.0268
     36    H      -71.2820  -91.1950   -9.5580 H       2  LIG2        0.0233
     37    H      -72.8190  -90.8490  -10.3450 H       2  LIG2        0.0233
     38    H      -72.6020  -90.4720   -8.6400 H       2  LIG2        0.0233
     39    H      -68.0300  -89.7720   -8.0920 H       2  LIG2        0.0257
     40    H      -66.4480  -89.0360   -8.2210 H       2  LIG2        0.0257
     41    H      -67.1900  -89.7480   -9.6300 H       2  LIG2        0.0257
     42    H      -67.4930  -86.2870  -10.1790 H       2  LIG2        0.2102
@<TRIPOS>BOND
     1    35    14    1
     2    24    10    1
     3    34    14    1
     4    14    10    1
     5    14     8    1
     6    10    25    1
     7    10     6    1
     8    37    15    1
     9    42     1    1
    10    20     6    1
    11    23     8    1
    12     8    15    1
    13     8     5    1
    14     1     9    1
    15     6     9    1
    16     6     5    1
    17    41    16    1
    18    15    36    1
    19    15    38    1
    20     9    16    1
    21     9    11    1
    22     5    19    1
    23     5     2    1
    24    16    40    1
    25    16    39    1
    26    17     2    1
    27    26    11    1
    28     2     4    1
    29     2     3    1
    30    11    27    1
    31    11     7    1
    32     4     7    1
    33     4    18    1
    34     4     3    1
    35     7    22    1
    36     7    21    1
    37     3    12    1
    38     3    13    1
    39    30    12    1
    40    32    13    1
    41    29    12    1
    42    33    13    1
    43    12    28    1
    44    13    31    1
@<TRIPOS>MOLECULE
11996452_3_run_7.pdb
 42 44 0 0 0
SMALL
GASTEIGER

@<TRIPOS>ATOM
      1    O      -71.3550  -88.6790  -12.1730 O.3     2  LIG2       -0.3886
      2    C      -69.7990  -87.9710   -7.9360 C.3     2  LIG2       -0.0289
      3    C      -68.4160  -88.2160   -7.3560 C.3     2  LIG2       -0.0284
      4    C      -68.5410  -87.6330   -8.7480 C.3     2  LIG2       -0.0319
      5    C      -70.7360  -89.1050   -8.4240 C.3     2  LIG2       -0.0294
      6    C      -71.4250  -88.7880   -9.7750 C.3     2  LIG2       -0.0090
      7    C      -68.2280  -88.4170  -10.0400 C.3     2  LIG2       -0.0468
      8    C      -71.8720  -89.4100   -7.4120 C.3     2  LIG2       -0.0404
      9    C      -70.5710  -89.0780  -11.0600 C.3     2  LIG2        0.0664
     10    C      -72.7660  -89.5430   -9.6910 C.3     2  LIG2       -0.0471
     11    C      -69.2780  -88.2180  -11.1540 C.3     2  LIG2       -0.0237
     12    C      -67.9590  -87.2570   -6.2410 C.3     2  LIG2       -0.0593
     13    C      -67.8770  -89.6480   -7.1290 C.3     2  LIG2       -0.0593
     14    C      -73.1770  -89.4890   -8.2220 C.3     2  LIG2       -0.0498
     15    C      -71.6080  -90.6500   -6.5390 C.3     2  LIG2       -0.0621
     16    C      -70.2400  -90.5730  -11.3070 C.3     2  LIG2       -0.0358
     17    H      -70.3630  -87.1130   -7.5670 H       2  LIG2        0.0312
     18    H      -68.2490  -86.5870   -8.8470 H       2  LIG2        0.0309
     19    H      -70.1770  -90.0250   -8.5680 H       2  LIG2        0.0310
     20    H      -71.6710  -87.7230   -9.7800 H       2  LIG2        0.0331
     21    H      -67.2720  -88.0490  -10.4140 H       2  LIG2        0.0269
     22    H      -68.0690  -89.4770   -9.8600 H       2  LIG2        0.0269
     23    H      -71.9840  -88.5630   -6.7320 H       2  LIG2        0.0301
     24    H      -73.5270  -89.0940  -10.3310 H       2  LIG2        0.0269
     25    H      -72.6630  -90.5840   -9.9960 H       2  LIG2        0.0269
     26    H      -69.5410  -87.1590  -11.1790 H       2  LIG2        0.0293
     27    H      -68.7870  -88.4160  -12.1110 H       2  LIG2        0.0293
     28    H      -66.8720  -87.1960   -6.1990 H       2  LIG2        0.0235
     29    H      -68.3150  -87.5920   -5.2660 H       2  LIG2        0.0235
     30    H      -68.3350  -86.2440   -6.3910 H       2  LIG2        0.0235
     31    H      -66.7860  -89.6470   -7.1110 H       2  LIG2        0.0235
     32    H      -68.1760  -90.3690   -7.8860 H       2  LIG2        0.0235
     33    H      -68.2190  -90.0390   -6.1700 H       2  LIG2        0.0235
     34    H      -73.7890  -90.3530   -7.9550 H       2  LIG2        0.0268
     35    H      -73.7860  -88.6030   -8.0380 H       2  LIG2        0.0268
     36    H      -71.5090  -91.5500   -7.1460 H       2  LIG2        0.0233
     37    H      -72.4220  -90.8150   -5.8320 H       2  LIG2        0.0233
     38    H      -70.6900  -90.5350   -5.9610 H       2  LIG2        0.0233
     39    H      -69.6840  -91.0190  -10.4840 H       2  LIG2        0.0257
     40    H      -69.6320  -90.7020  -12.2030 H       2  LIG2        0.0257
     41    H      -71.1330  -91.1790  -11.4550 H       2  LIG2        0.0257
     42    H      -71.5040  -87.7320  -12.1140 H       2  LIG2        0.2102
@<TRIPOS>BOND
     1    40    16    1
     2     1    42    1
     3     1     9    1
     4    27    11    1
     5    41    16    1
     6    16     9    1
     7    16    39    1
     8    26    11    1
     9    11     9    1
    10    11     7    1
    11     9     6    1
    12    21     7    1
    13    24    10    1
    14     7    22    1
    15     7     4    1
    16    25    10    1
    17    20     6    1
    18     6    10    1
    19     6     5    1
    20    10    14    1
    21    18     4    1
    22     4     2    1
    23     4     3    1
    24    19     5    1
    25     5     2    1
    26     5     8    1
    27    14    35    1
    28    14    34    1
    29    14     8    1
    30     2    17    1
    31     2     3    1
    32    32    13    1
    33     8    23    1
    34     8    15    1
    35     3    13    1
    36     3    12    1
    37    36    15    1
    38    13    31    1
    39    13    33    1
    40    15    38    1
    41    15    37    1
    42    30    12    1
    43    12    28    1
    44    12    29    1
@<TRIPOS>MOLECULE
11996452_3_run_16.pdb
 42 44 0 0 0
SMALL
GASTEIGER

@<TRIPOS>ATOM
      1    O      -61.3210  -82.0870  -14.5910 O.3     2  LIG2       -0.3886
      2    C      -62.3000  -78.6160  -11.7870 C.3     2  LIG2       -0.0289
      3    C      -63.6320  -78.2010  -11.1840 C.3     2  LIG2       -0.0284
      4    C      -63.2830  -79.6720  -11.2660 C.3     2  LIG2       -0.0319
      5    C      -61.9910  -78.5500  -13.3050 C.3     2  LIG2       -0.0294
      6    C      -61.2600  -79.8100  -13.8340 C.3     2  LIG2       -0.0090
      7    C      -63.9440  -80.6590  -12.2520 C.3     2  LIG2       -0.0468
      8    C      -61.0970  -77.3360  -13.6740 C.3     2  LIG2       -0.0404
      9    C      -62.1780  -81.0360  -14.1770 C.3     2  LIG2        0.0664
     10    C      -60.4070  -79.2780  -15.0020 C.3     2  LIG2       -0.0471
     11    C      -62.9410  -81.6050  -12.9470 C.3     2  LIG2       -0.0237
     12    C      -63.5800  -77.5540   -9.7880 C.3     2  LIG2       -0.0593
     13    C      -64.7580  -77.5920  -12.0520 C.3     2  LIG2       -0.0593
     14    C      -59.9870  -77.8680  -14.5970 C.3     2  LIG2       -0.0498
     15    C      -61.8780  -76.1480  -14.2650 C.3     2  LIG2       -0.0621
     16    C      -63.1570  -80.8150  -15.3600 C.3     2  LIG2       -0.0358
     17    H      -61.4010  -78.4740  -11.1870 H       2  LIG2        0.0312
     18    H      -63.0700  -80.1590  -10.3130 H       2  LIG2        0.0309
     19    H      -62.9090  -78.4590  -13.8770 H       2  LIG2        0.0310
     20    H      -60.5570  -80.1340  -13.0620 H       2  LIG2        0.0331
     21    H      -64.6360  -81.2740  -11.6750 H       2  LIG2        0.0269
     22    H      -64.5640  -80.1610  -12.9930 H       2  LIG2        0.0269
     23    H      -60.5990  -76.9700  -12.7740 H       2  LIG2        0.0301
     24    H      -59.5380  -79.9090  -15.1930 H       2  LIG2        0.0269
     25    H      -60.9770  -79.2290  -15.9290 H       2  LIG2        0.0269
     26    H      -62.2260  -81.9430  -12.1940 H       2  LIG2        0.0293
     27    H      -63.4860  -82.5030  -13.2500 H       2  LIG2        0.0293
     28    H      -64.5210  -77.6980   -9.2550 H       2  LIG2        0.0235
     29    H      -63.3970  -76.4810   -9.8610 H       2  LIG2        0.0235
     30    H      -62.7890  -77.9750   -9.1680 H       2  LIG2        0.0235
     31    H      -65.7280  -77.7390  -11.5770 H       2  LIG2        0.0235
     32    H      -64.8340  -78.0100  -13.0530 H       2  LIG2        0.0235
     33    H      -64.6110  -76.5180  -12.1710 H       2  LIG2        0.0235
     34    H      -59.8290  -77.2380  -15.4740 H       2  LIG2        0.0268
     35    H      -59.0390  -77.9020  -14.0590 H       2  LIG2        0.0268
     36    H      -62.3880  -76.4270  -15.1880 H       2  LIG2        0.0233
     37    H      -61.2140  -75.3130  -14.4920 H       2  LIG2        0.0233
     38    H      -62.6320  -75.7870  -13.5640 H       2  LIG2        0.0233
     39    H      -63.8380  -79.9830  -15.1880 H       2  LIG2        0.0257
     40    H      -63.7750  -81.6970  -15.5340 H       2  LIG2        0.0257
     41    H      -62.6400  -80.6160  -16.2980 H       2  LIG2        0.0257
     42    H      -61.8620  -82.8430  -14.8330 H       2  LIG2        0.2102
@<TRIPOS>BOND
     1    41    16    1
     2    25    10    1
     3    40    16    1
     4    34    14    1
     5    16    39    1
     6    16     9    1
     7    24    10    1
     8    36    15    1
     9    10    14    1
    10    10     6    1
    11    42     1    1
    12    14    35    1
    13    14     8    1
    14     1     9    1
    15    37    15    1
    16    15     8    1
    17    15    38    1
    18     9     6    1
    19     9    11    1
    20    19     5    1
    21     6     5    1
    22     6    20    1
    23     8     5    1
    24     8    23    1
    25     5     2    1
    26    27    11    1
    27    32    13    1
    28    22     7    1
    29    11     7    1
    30    11    26    1
    31     7    21    1
    32     7     4    1
    33    33    13    1
    34    13    31    1
    35    13     3    1
    36     2     4    1
    37     2    17    1
    38     2     3    1
    39     4     3    1
    40     4    18    1
    41     3    12    1
    42    29    12    1
    43    12    28    1
    44    12    30    1
@<TRIPOS>MOLECULE
11996452_3_run_7.pdb
 42 44 0 0 0
SMALL
GASTEIGER

@<TRIPOS>ATOM
      1    O      -64.0340  -78.1840  -10.4740 O.3     2  LIG2       -0.3886
      2    C      -63.3030  -79.7350  -14.7090 C.3     2  LIG2       -0.0289
      3    C      -63.1100  -81.1600  -15.2010 C.3     2  LIG2       -0.0284
      4    C      -64.1560  -80.8780  -14.1430 C.3     2  LIG2       -0.0319
      5    C      -62.2990  -79.0070  -13.7800 C.3     2  LIG2       -0.0294
      6    C      -62.9850  -78.2230  -12.6330 C.3     2  LIG2       -0.0090
      7    C      -64.0130  -81.2840  -12.6610 C.3     2  LIG2       -0.0468
      8    C      -61.4190  -77.9840  -14.5470 C.3     2  LIG2       -0.0404
      9    C      -63.3830  -79.0680  -11.3720 C.3     2  LIG2        0.0664
     10    C      -62.0250  -77.0480  -12.3630 C.3     2  LIG2       -0.0471
     11    C      -64.4340  -80.1760  -11.6720 C.3     2  LIG2       -0.0237
     12    C      -63.6240  -81.4710  -16.6190 C.3     2  LIG2       -0.0593
     13    C      -61.8290  -81.9620  -14.8710 C.3     2  LIG2       -0.0593
     14    C      -61.4230  -76.6880  -13.7180 C.3     2  LIG2       -0.0498
     15    C      -60.0080  -78.5050  -14.8750 C.3     2  LIG2       -0.0621
     16    C      -62.1930  -79.6610  -10.5750 C.3     2  LIG2       -0.0358
     17    H      -63.8280  -79.0360  -15.3610 H       2  LIG2        0.0312
     18    H      -65.1930  -80.9680  -14.4720 H       2  LIG2        0.0309
     19    H      -61.6280  -79.7210  -13.3100 H       2  LIG2        0.0310
     20    H      -63.9030  -77.7840  -13.0350 H       2  LIG2        0.0331
     21    H      -64.6670  -82.1420  -12.4980 H       2  LIG2        0.0269
     22    H      -63.0160  -81.6430  -12.4190 H       2  LIG2        0.0269
     23    H      -61.8960  -77.7420  -15.4980 H       2  LIG2        0.0301
     24    H      -62.5390  -76.1950  -11.9200 H       2  LIG2        0.0269
     25    H      -61.2240  -77.3310  -11.6800 H       2  LIG2        0.0269
     26    H      -65.3500  -79.7200  -12.0530 H       2  LIG2        0.0293
     27    H      -64.7200  -80.6590  -10.7350 H       2  LIG2        0.0293
     28    H      -63.8630  -82.5300  -16.7240 H       2  LIG2        0.0235
     29    H      -62.8740  -81.2200  -17.3700 H       2  LIG2        0.0235
     30    H      -64.5260  -80.9100  -16.8620 H       2  LIG2        0.0235
     31    H      -62.0240  -83.0340  -14.9310 H       2  LIG2        0.0235
     32    H      -61.4200  -81.7740  -13.8820 H       2  LIG2        0.0235
     33    H      -61.0390  -81.7330  -15.5870 H       2  LIG2        0.0235
     34    H      -60.4270  -76.2570  -13.6030 H       2  LIG2        0.0268
     35    H      -62.0380  -75.9330  -14.2100 H       2  LIG2        0.0268
     36    H      -59.4510  -78.7470  -13.9690 H       2  LIG2        0.0233
     37    H      -59.4320  -77.7620  -15.4290 H       2  LIG2        0.0233
     38    H      -60.0550  -79.4060  -15.4880 H       2  LIG2        0.0233
     39    H      -61.5710  -80.3190  -11.1790 H       2  LIG2        0.0257
     40    H      -62.5390  -80.2490   -9.7230 H       2  LIG2        0.0257
     41    H      -61.5390  -78.8910  -10.1660 H       2  LIG2        0.0257
     42    H      -64.7780  -77.7820  -10.9290 H       2  LIG2        0.2102
@<TRIPOS>BOND
     1    29    12    1
     2    30    12    1
     3    28    12    1
     4    12     3    1
     5    33    13    1
     6    23     8    1
     7    38    15    1
     8    37    15    1
     9    17     2    1
    10     3    13    1
    11     3     2    1
    12     3     4    1
    13    31    13    1
    14    15     8    1
    15    15    36    1
    16    13    32    1
    17     2     4    1
    18     2     5    1
    19     8     5    1
    20     8    14    1
    21    18     4    1
    22    35    14    1
    23     4     7    1
    24     5    19    1
    25     5     6    1
    26    14    34    1
    27    14    10    1
    28    20     6    1
    29     7    21    1
    30     7    22    1
    31     7    11    1
    32     6    10    1
    33     6     9    1
    34    10    24    1
    35    10    25    1
    36    26    11    1
    37    11     9    1
    38    11    27    1
    39     9    16    1
    40     9     1    1
    41    39    16    1
    42    42     1    1
    43    16    41    1
    44    16    40    1
@<TRIPOS>MOLECULE
11996452_3_run_14.pdb
 42 44 0 0 0
SMALL
GASTEIGER

@<TRIPOS>ATOM
      1    O      -72.2620  -86.8040   -7.5280 O.3     2  LIG2       -0.3886
      2    C      -69.4760  -88.5980  -10.6730 C.3     2  LIG2       -0.0289
      3    C      -69.6680  -89.8190  -11.5580 C.3     2  LIG2       -0.0284
      4    C      -70.8370  -88.8860  -11.3190 C.3     2  LIG2       -0.0319
      5    C      -69.3370  -88.6720   -9.1310 C.3     2  LIG2       -0.0294
      6    C      -70.1640  -87.5920   -8.3910 C.3     2  LIG2       -0.0090
      7    C      -72.0500  -89.2360  -10.4320 C.3     2  LIG2       -0.0468
      8    C      -67.8670  -88.5000   -8.6610 C.3     2  LIG2       -0.0404
      9    C      -71.6810  -87.9280   -8.1690 C.3     2  LIG2        0.0664
     10    C      -69.3540  -87.3210   -7.1070 C.3     2  LIG2       -0.0471
     11    C      -72.4820  -88.0890   -9.4930 C.3     2  LIG2       -0.0237
     12    C      -69.0130  -89.7660  -12.9500 C.3     2  LIG2       -0.0593
     13    C      -69.6500  -91.2500  -10.9740 C.3     2  LIG2       -0.0593
     14    C      -67.8900  -87.4890   -7.5020 C.3     2  LIG2       -0.0498
     15    C      -67.1690  -89.8260   -8.3120 C.3     2  LIG2       -0.0621
     16    C      -71.9580  -89.1270   -7.2250 C.3     2  LIG2       -0.0358
     17    H      -68.9300  -87.7480  -11.0860 H       2  LIG2        0.0312
     18    H      -71.1440  -88.2870  -12.1790 H       2  LIG2        0.0309
     19    H      -69.6810  -89.6340   -8.7630 H       2  LIG2        0.0310
     20    H      -70.1160  -86.6740   -8.9830 H       2  LIG2        0.0331
     21    H      -72.8850  -89.4520  -11.1000 H       2  LIG2        0.0269
     22    H      -71.9040  -90.1510   -9.8620 H       2  LIG2        0.0269
     23    H      -67.2860  -88.0370   -9.4610 H       2  LIG2        0.0301
     24    H      -69.5450  -86.3250   -6.7070 H       2  LIG2        0.0269
     25    H      -69.5960  -88.0350   -6.3200 H       2  LIG2        0.0269
     26    H      -72.4420  -87.1590  -10.0630 H       2  LIG2        0.0293
     27    H      -73.5390  -88.2360   -9.2540 H       2  LIG2        0.0293
     28    H      -69.5370  -90.4140  -13.6530 H       2  LIG2        0.0235
     29    H      -67.9730  -90.0920  -12.9060 H       2  LIG2        0.0235
     30    H      -69.0190  -88.7600  -13.3700 H       2  LIG2        0.0235
     31    H      -70.1920  -91.9360  -11.6270 H       2  LIG2        0.0235
     32    H      -70.0960  -91.3420   -9.9870 H       2  LIG2        0.0235
     33    H      -68.6270  -91.6180  -10.8920 H       2  LIG2        0.0235
     34    H      -67.2880  -87.8090   -6.6490 H       2  LIG2        0.0268
     35    H      -67.4820  -86.5320   -7.8330 H       2  LIG2        0.0268
     36    H      -67.6780  -90.3420   -7.4970 H       2  LIG2        0.0233
     37    H      -66.1360  -89.6590   -8.0050 H       2  LIG2        0.0233
     38    H      -67.1510  -90.4980   -9.1720 H       2  LIG2        0.0233
     39    H      -71.5060  -90.0520   -7.5810 H       2  LIG2        0.0257
     40    H      -73.0280  -89.3170   -7.1280 H       2  LIG2        0.0257
     41    H      -71.5870  -88.9570   -6.2150 H       2  LIG2        0.0257
     42    H      -72.0930  -86.0270   -8.0660 H       2  LIG2        0.2102
@<TRIPOS>BOND
     1    28    12    1
     2    30    12    1
     3    12    29    1
     4    12     3    1
     5    18     4    1
     6    31    13    1
     7     3     4    1
     8     3    13    1
     9     3     2    1
    10     4     2    1
    11     4     7    1
    12    21     7    1
    13    17     2    1
    14    13    33    1
    15    13    32    1
    16     2     5    1
    17     7    22    1
    18     7    11    1
    19    26    11    1
    20    11    27    1
    21    11     9    1
    22    23     8    1
    23    38    15    1
    24     5    19    1
    25     5     8    1
    26     5     6    1
    27    20     6    1
    28     8    15    1
    29     8    14    1
    30     6     9    1
    31     6    10    1
    32    15    37    1
    33    15    36    1
    34     9     1    1
    35     9    16    1
    36    42     1    1
    37    35    14    1
    38    39    16    1
    39    14    10    1
    40    14    34    1
    41    16    40    1
    42    16    41    1
    43    10    24    1
    44    10    25    1
@<TRIPOS>MOLECULE
11996452_3_run_15.pdb
 42 44 0 0 0
SMALL
GASTEIGER

@<TRIPOS>ATOM
      1    O      -66.5390  -89.6590   -7.8230 O.3     2  LIG2       -0.3886
      2    C      -70.0160  -86.8460   -6.8880 C.3     2  LIG2       -0.0289
      3    C      -70.9540  -86.8260   -5.6930 C.3     2  LIG2       -0.0284
      4    C      -69.4800  -87.0970   -5.4730 C.3     2  LIG2       -0.0319
      5    C      -69.9800  -87.9950   -7.9280 C.3     2  LIG2       -0.0294
      6    C      -68.5420  -88.4280   -8.3100 C.3     2  LIG2       -0.0090
      7    C      -68.9060  -88.4810   -5.1020 C.3     2  LIG2       -0.0468
      8    C      -70.6920  -87.6160   -9.2540 C.3     2  LIG2       -0.0404
      9    C      -67.8480  -89.4330   -7.3250 C.3     2  LIG2        0.0664
     10    C      -68.6780  -88.9190   -9.7650 C.3     2  LIG2       -0.0471
     11    C      -67.6360  -88.8570   -5.8950 C.3     2  LIG2       -0.0237
     12    C      -71.4770  -85.4450   -5.2550 C.3     2  LIG2       -0.0593
     13    C      -72.0150  -87.9300   -5.4790 C.3     2  LIG2       -0.0593
     14    C      -69.7530  -88.0390  -10.3970 C.3     2  LIG2       -0.0498
     15    C      -72.1160  -88.1870   -9.3770 C.3     2  LIG2       -0.0621
     16    C      -68.5040  -90.8360   -7.2450 C.3     2  LIG2       -0.0358
     17    H      -69.7350  -85.8910   -7.3350 H       2  LIG2        0.0312
     18    H      -68.9250  -86.3000   -4.9760 H       2  LIG2        0.0309
     19    H      -70.4770  -88.8780   -7.5370 H       2  LIG2        0.0310
     20    H      -67.9230  -87.5260   -8.3470 H       2  LIG2        0.0331
     21    H      -68.6400  -88.4450   -4.0450 H       2  LIG2        0.0269
     22    H      -69.6440  -89.2760   -5.1780 H       2  LIG2        0.0269
     23    H      -70.7800  -86.5290   -9.3160 H       2  LIG2        0.0301
     24    H      -67.7370  -88.8450  -10.3100 H       2  LIG2        0.0269
     25    H      -68.9960  -89.9600   -9.8110 H       2  LIG2        0.0269
     26    H      -67.0010  -87.9700   -5.9460 H       2  LIG2        0.0293
     27    H      -67.0740  -89.5800   -5.2990 H       2  LIG2        0.0293
     28    H      -71.7430  -85.4450   -4.1980 H       2  LIG2        0.0235
     29    H      -72.3640  -85.1650   -5.8250 H       2  LIG2        0.0235
     30    H      -70.7370  -84.6590   -5.4030 H       2  LIG2        0.0235
     31    H      -72.2930  -87.9940   -4.4260 H       2  LIG2        0.0235
     32    H      -71.6990  -88.9260   -5.7790 H       2  LIG2        0.0235
     33    H      -72.9210  -87.7060   -6.0440 H       2  LIG2        0.0235
     34    H      -70.2740  -88.5700  -11.1970 H       2  LIG2        0.0268
     35    H      -69.2950  -87.1590  -10.8490 H       2  LIG2        0.0268
     36    H      -72.1120  -89.2770   -9.3500 H       2  LIG2        0.0233
     37    H      -72.5830  -87.8810  -10.3140 H       2  LIG2        0.0233
     38    H      -72.7510  -87.8360   -8.5630 H       2  LIG2        0.0233
     39    H      -69.5450  -90.7930   -6.9280 H       2  LIG2        0.0257
     40    H      -67.9850  -91.4780   -6.5320 H       2  LIG2        0.0257
     41    H      -68.4820  -91.3620   -8.1990 H       2  LIG2        0.0257
     42    H      -66.0180  -88.8650   -7.6790 H       2  LIG2        0.2102
@<TRIPOS>BOND
     1    34    14    1
     2    35    14    1
     3    14    10    1
     4    14     8    1
     5    37    15    1
     6    24    10    1
     7    25    10    1
     8    10     6    1
     9    15    36    1
    10    15     8    1
    11    15    38    1
    12    23     8    1
    13     8     5    1
    14    20     6    1
    15     6     5    1
    16     6     9    1
    17    41    16    1
    18     5    19    1
    19     5     2    1
    20     1    42    1
    21     1     9    1
    22    17     2    1
    23     9    16    1
    24     9    11    1
    25    16    39    1
    26    16    40    1
    27     2     3    1
    28     2     4    1
    29    33    13    1
    30    26    11    1
    31    11    27    1
    32    11     7    1
    33    29    12    1
    34    32    13    1
    35     3    13    1
    36     3     4    1
    37     3    12    1
    38    13    31    1
    39     4     7    1
    40     4    18    1
    41    30    12    1
    42    12    28    1
    43    22     7    1
    44     7    21    1
@<TRIPOS>MOLECULE
11996452_3_run_19.pdb
 42 44 0 0 0
SMALL
GASTEIGER

@<TRIPOS>ATOM
      1    O      -59.7630  -77.9200  -13.9590 O.3     2  LIG2       -0.3886
      2    C      -62.2780  -81.7090  -13.5120 C.3     2  LIG2       -0.0289
      3    C      -63.2580  -82.3430  -14.4840 C.3     2  LIG2       -0.0284
      4    C      -61.9610  -81.7670  -15.0120 C.3     2  LIG2       -0.0319
      5    C      -62.5100  -80.3320  -12.8390 C.3     2  LIG2       -0.0294
      6    C      -61.2470  -79.4340  -12.8320 C.3     2  LIG2       -0.0090
      7    C      -61.8700  -80.4610  -15.8300 C.3     2  LIG2       -0.0468
      8    C      -62.9620  -80.4660  -11.3600 C.3     2  LIG2       -0.0404
      9    C      -60.9760  -78.6300  -14.1520 C.3     2  LIG2        0.0664
     10    C      -61.4090  -78.5790  -11.5600 C.3     2  LIG2       -0.0471
     11    C      -60.7150  -79.5350  -15.3900 C.3     2  LIG2       -0.0237
     12    C      -63.3680  -83.8790  -14.4430 C.3     2  LIG2       -0.0593
     13    C      -64.6200  -81.6840  -14.8040 C.3     2  LIG2       -0.0593
     14    C      -62.1080  -79.4790  -10.5460 C.3     2  LIG2       -0.0498
     15    C      -64.4770  -80.2890  -11.1570 C.3     2  LIG2       -0.0621
     16    C      -62.0350  -77.5480  -14.4920 C.3     2  LIG2       -0.0358
     17    H      -61.6830  -82.3700  -12.8810 H       2  LIG2        0.0312
     18    H      -61.2310  -82.4980  -15.3640 H       2  LIG2        0.0309
     19    H      -63.2830  -79.7770  -13.3620 H       2  LIG2        0.0310
     20    H      -60.3820  -80.0810  -12.6600 H       2  LIG2        0.0331
     21    H      -61.6930  -80.7440  -16.8680 H       2  LIG2        0.0269
     22    H      -62.8070  -79.9090  -15.8460 H       2  LIG2        0.0269
     23    H      -62.7080  -81.4640  -10.9960 H       2  LIG2        0.0301
     24    H      -60.4490  -78.2270  -11.1810 H       2  LIG2        0.0269
     25    H      -62.0240  -77.6990  -11.7420 H       2  LIG2        0.0269
     26    H      -59.8380  -80.1590  -15.2120 H       2  LIG2        0.0293
     27    H      -60.4520  -78.9050  -16.2440 H       2  LIG2        0.0293
     28    H      -63.7060  -84.2720  -15.4010 H       2  LIG2        0.0235
     29    H      -64.0780  -84.2000  -13.6790 H       2  LIG2        0.0235
     30    H      -62.4130  -84.3530  -14.2170 H       2  LIG2        0.0235
     31    H      -64.9890  -82.0210  -15.7740 H       2  LIG2        0.0235
     32    H      -64.6000  -80.5980  -14.8390 H       2  LIG2        0.0235
     33    H      -65.3650  -81.9600  -14.0570 H       2  LIG2        0.0235
     34    H      -62.6990  -78.8900   -9.8410 H       2  LIG2        0.0268
     35    H      -61.3680  -80.0230   -9.9570 H       2  LIG2        0.0268
     36    H      -64.8090  -79.3000  -11.4740 H       2  LIG2        0.0233
     37    H      -64.7510  -80.4090  -10.1080 H       2  LIG2        0.0233
     38    H      -65.0390  -81.0280  -11.7290 H       2  LIG2        0.0233
     39    H      -63.0340  -77.9640  -14.6070 H       2  LIG2        0.0257
     40    H      -61.7960  -77.0390  -15.4280 H       2  LIG2        0.0257
     41    H      -62.0970  -76.7710  -13.7310 H       2  LIG2        0.0257
     42    H      -59.8910  -77.2890  -13.2470 H       2  LIG2        0.2102
@<TRIPOS>BOND
     1    21     7    1
     2    27    11    1
     3    22     7    1
     4     7    11    1
     5     7     4    1
     6    31    13    1
     7    40    16    1
     8    28    12    1
     9    11    26    1
    10    11     9    1
    11    18     4    1
    12     4     3    1
    13     4     2    1
    14    32    13    1
    15    13     3    1
    16    13    33    1
    17    39    16    1
    18    16     9    1
    19    16    41    1
    20     3    12    1
    21     3     2    1
    22    12    30    1
    23    12    29    1
    24     9     1    1
    25     9     6    1
    26     1    42    1
    27     2    17    1
    28     2     5    1
    29    19     5    1
    30     5     6    1
    31     5     8    1
    32     6    20    1
    33     6    10    1
    34    25    10    1
    35    38    15    1
    36    10    24    1
    37    10    14    1
    38    36    15    1
    39     8    15    1
    40     8    23    1
    41     8    14    1
    42    15    37    1
    43    14    35    1
    44    14    34    1
@<TRIPOS>MOLECULE
11996452_3_run_19.pdb
 42 44 0 0 0
SMALL
GASTEIGER

@<TRIPOS>ATOM
      1    O      -66.6850  -87.3840   -5.6790 O.3     2  LIG2       -0.3886
      2    C      -69.7520  -89.0460   -8.6300 C.3     2  LIG2       -0.0289
      3    C      -70.9500  -88.3660   -9.2710 C.3     2  LIG2       -0.0284
      4    C      -69.6530  -87.5980   -9.1260 C.3     2  LIG2       -0.0319
      5    C      -69.6440  -89.3370   -7.1110 C.3     2  LIG2       -0.0294
      6    C      -68.2520  -88.9970   -6.5220 C.3     2  LIG2       -0.0090
      7    C      -69.4410  -86.4510   -8.1150 C.3     2  LIG2       -0.0468
      8    C      -69.9110  -90.8280   -6.7750 C.3     2  LIG2       -0.0404
      9    C      -68.0200  -87.4910   -6.1470 C.3     2  LIG2        0.0664
     10    C      -68.0880  -89.9970   -5.3610 C.3     2  LIG2       -0.0471
     11    C      -68.0910  -86.5280   -7.3680 C.3     2  LIG2       -0.0237
     12    C      -71.3250  -88.8320  -10.6900 C.3     2  LIG2       -0.0593
     13    C      -72.2030  -87.9910   -8.4460 C.3     2  LIG2       -0.0593
     14    C      -68.7950  -91.2720   -5.8140 C.3     2  LIG2       -0.0498
     15    C      -71.3300  -91.0980   -6.2430 C.3     2  LIG2       -0.0621
     16    C      -68.9040  -86.9560   -4.9910 C.3     2  LIG2       -0.0358
     17    H      -69.2060  -89.7830   -9.2200 H       2  LIG2        0.0312
     18    H      -69.1180  -87.4000  -10.0560 H       2  LIG2        0.0309
     19    H      -70.3690  -88.7470   -6.5580 H       2  LIG2        0.0310
     20    H      -67.5000  -89.2670   -7.2690 H       2  LIG2        0.0331
     21    H      -69.4560  -85.5180   -8.6790 H       2  LIG2        0.0269
     22    H      -70.2580  -86.3620   -7.4030 H       2  LIG2        0.0269
     23    H      -69.7930  -91.4270   -7.6800 H       2  LIG2        0.0301
     24    H      -67.0390  -90.1880   -5.1320 H       2  LIG2        0.0269
     25    H      -68.5560  -89.6340   -4.4470 H       2  LIG2        0.0269
     26    H      -67.3230  -86.7970   -8.0950 H       2  LIG2        0.0293
     27    H      -67.8360  -85.5170   -7.0400 H       2  LIG2        0.0293
     28    H      -71.8530  -88.0460  -11.2320 H       2  LIG2        0.0235
     29    H      -71.9730  -89.7090  -10.6550 H       2  LIG2        0.0235
     30    H      -70.4490  -89.1000  -11.2800 H       2  LIG2        0.0235
     31    H      -72.7520  -87.1830   -8.9310 H       2  LIG2        0.0235
     32    H      -71.9950  -87.6610   -7.4310 H       2  LIG2        0.0235
     33    H      -72.8790  -88.8430   -8.3660 H       2  LIG2        0.0235
     34    H      -69.1720  -91.8350   -4.9580 H       2  LIG2        0.0268
     35    H      -68.0920  -91.9230   -6.3340 H       2  LIG2        0.0268
     36    H      -71.5200  -90.5520   -5.3180 H       2  LIG2        0.0233
     37    H      -71.4790  -92.1590   -6.0370 H       2  LIG2        0.0233
     38    H      -72.0860  -90.7960   -6.9690 H       2  LIG2        0.0233
     39    H      -69.9690  -87.0400   -5.2060 H       2  LIG2        0.0257
     40    H      -68.7060  -85.9020   -4.7930 H       2  LIG2        0.0257
     41    H      -68.7250  -87.4800   -4.0520 H       2  LIG2        0.0257
     42    H      -66.0940  -87.6570   -6.3840 H       2  LIG2        0.2102
@<TRIPOS>BOND
     1    30    12    1
     2    28    12    1
     3    12    29    1
     4    12     3    1
     5    18     4    1
     6     3     4    1
     7     3     2    1
     8     3    13    1
     9    17     2    1
    10     4     2    1
    11     4     7    1
    12    31    13    1
    13    21     7    1
    14     2     5    1
    15    13    33    1
    16    13    32    1
    17     7    22    1
    18     7    11    1
    19    26    11    1
    20    23     8    1
    21    11    27    1
    22    11     9    1
    23    20     6    1
    24     5     8    1
    25     5    19    1
    26     5     6    1
    27    38    15    1
    28     8    15    1
    29     8    14    1
    30     6     9    1
    31     6    10    1
    32    42     1    1
    33    35    14    1
    34    15    37    1
    35    15    36    1
    36     9     1    1
    37     9    16    1
    38    14    10    1
    39    14    34    1
    40    10    24    1
    41    10    25    1
    42    39    16    1
    43    16    40    1
    44    16    41    1
@<TRIPOS>MOLECULE
11996452_3_run_8.pdb
 42 44 0 0 0
SMALL
GASTEIGER

@<TRIPOS>ATOM
      1    O      -67.0390  -88.3310   -6.2370 O.3     2  LIG2       -0.3886
      2    C      -70.9760  -89.6490   -8.1430 C.3     2  LIG2       -0.0289
      3    C      -71.4460  -89.5290   -9.5830 C.3     2  LIG2       -0.0284
      4    C      -70.0090  -89.9160   -9.3030 C.3     2  LIG2       -0.0319
      5    C      -70.7330  -88.4290   -7.2180 C.3     2  LIG2       -0.0294
      6    C      -69.4260  -88.5400   -6.3930 C.3     2  LIG2       -0.0090
      7    C      -68.8050  -88.9790   -9.5320 C.3     2  LIG2       -0.0468
      8    C      -71.8820  -88.2240   -6.1950 C.3     2  LIG2       -0.0404
      9    C      -68.1120  -88.1100   -7.1370 C.3     2  LIG2        0.0664
     10    C      -69.7370  -87.7590   -5.1010 C.3     2  LIG2       -0.0471
     11    C      -67.7820  -88.9920   -8.3750 C.3     2  LIG2       -0.0237
     12    C      -72.3770  -90.6430  -10.0960 C.3     2  LIG2       -0.0593
     13    C      -71.8020  -88.1590  -10.2050 C.3     2  LIG2       -0.0593
     14    C      -71.2200  -87.9940   -4.8260 C.3     2  LIG2       -0.0498
     15    C      -72.8780  -87.1210   -6.5950 C.3     2  LIG2       -0.0621
     16    C      -68.0300  -86.6070   -7.5120 C.3     2  LIG2       -0.0358
     17    H      -71.2850  -90.5280   -7.5760 H       2  LIG2        0.0312
     18    H      -69.7470  -90.9500   -9.5370 H       2  LIG2        0.0309
     19    H      -70.6560  -87.5170   -7.8030 H       2  LIG2        0.0310
     20    H      -69.3070  -89.5860   -6.0990 H       2  LIG2        0.0331
     21    H      -68.2940  -89.3250  -10.4310 H       2  LIG2        0.0269
     22    H      -69.1040  -87.9580   -9.7550 H       2  LIG2        0.0269
     23    H      -72.4540  -89.1500   -6.1070 H       2  LIG2        0.0301
     24    H      -69.1220  -88.0920   -4.2650 H       2  LIG2        0.0269
     25    H      -69.5610  -86.6910   -5.2240 H       2  LIG2        0.0269
     26    H      -67.6460  -90.0290   -8.0630 H       2  LIG2        0.0293
     27    H      -66.8160  -88.6850   -8.7840 H       2  LIG2        0.0293
     28    H      -72.3040  -90.7450  -11.1790 H       2  LIG2        0.0235
     29    H      -73.4170  -90.4290   -9.8480 H       2  LIG2        0.0235
     30    H      -72.1350  -91.6140   -9.6620 H       2  LIG2        0.0235
     31    H      -71.7130  -88.1980  -11.2920 H       2  LIG2        0.0235
     32    H      -71.1780  -87.3340   -9.8710 H       2  LIG2        0.0235
     33    H      -72.8320  -87.8880   -9.9710 H       2  LIG2        0.0235
     34    H      -71.6550  -87.1540   -4.2810 H       2  LIG2        0.0268
     35    H      -71.3460  -88.8760   -4.1970 H       2  LIG2        0.0268
     36    H      -72.3860  -86.1510   -6.6790 H       2  LIG2        0.0233
     37    H      -73.6760  -87.0250   -5.8580 H       2  LIG2        0.0233
     38    H      -73.3440  -87.3420   -7.5560 H       2  LIG2        0.0233
     39    H      -68.8460  -86.2940   -8.1620 H       2  LIG2        0.0257
     40    H      -67.1030  -86.3800   -8.0400 H       2  LIG2        0.0257
     41    H      -68.0490  -85.9570   -6.6380 H       2  LIG2        0.0257
     42    H      -66.2180  -88.1110   -6.6840 H       2  LIG2        0.2102
@<TRIPOS>BOND
     1    31    13    1
     2    28    12    1
     3    21     7    1
     4    13    33    1
     5    13    32    1
     6    13     3    1
     7    12    29    1
     8    12    30    1
     9    12     3    1
    10    22     7    1
    11     3     4    1
    12     3     2    1
    13    18     4    1
    14     7     4    1
    15     7    11    1
    16     4     2    1
    17    27    11    1
    18    11    26    1
    19    11     9    1
    20    39    16    1
    21     2    17    1
    22     2     5    1
    23    40    16    1
    24    19     5    1
    25    38    15    1
    26    16     9    1
    27    16    41    1
    28     5     6    1
    29     5     8    1
    30     9     6    1
    31     9     1    1
    32    42     1    1
    33    36    15    1
    34    15     8    1
    35    15    37    1
    36     6    20    1
    37     6    10    1
    38     8    23    1
    39     8    14    1
    40    25    10    1
    41    10    14    1
    42    10    24    1
    43    14    34    1
    44    14    35    1
@<TRIPOS>MOLECULE
11996452_3_run_23.pdb
 42 44 0 0 0
SMALL
GASTEIGER

@<TRIPOS>ATOM
      1    O      -73.1040  -86.1590   -6.9290 O.3     2  LIG2       -0.3886
      2    C      -68.9560  -87.7960   -7.9190 C.3     2  LIG2       -0.0289
      3    C      -68.5610  -89.1160   -8.5620 C.3     2  LIG2       -0.0284
      4    C      -69.7600  -88.3620   -9.0970 C.3     2  LIG2       -0.0319
      5    C      -69.6250  -87.6900   -6.5250 C.3     2  LIG2       -0.0294
      6    C      -70.8040  -86.6860   -6.4880 C.3     2  LIG2       -0.0090
      7    C      -71.2220  -88.8090   -8.8850 C.3     2  LIG2       -0.0468
      8    C      -68.6280  -87.2390   -5.4240 C.3     2  LIG2       -0.0404
      9    C      -72.1830  -87.2350   -6.9960 C.3     2  LIG2        0.0664
     10    C      -70.7970  -86.1610   -5.0390 C.3     2  LIG2       -0.0471
     11    C      -72.1720  -87.6560   -8.4950 C.3     2  LIG2       -0.0237
     12    C      -67.2890  -89.1010   -9.4310 C.3     2  LIG2       -0.0593
     13    C      -68.7240  -90.4590   -7.8150 C.3     2  LIG2       -0.0593
     14    C      -69.3300  -86.1320   -4.6190 C.3     2  LIG2       -0.0498
     15    C      -68.0990  -88.3950   -4.5560 C.3     2  LIG2       -0.0621
     16    C      -72.8030  -88.3610   -6.1290 C.3     2  LIG2       -0.0358
     17    H      -68.3500  -86.9170   -8.1430 H       2  LIG2        0.0312
     18    H      -69.6300  -87.9100  -10.0820 H       2  LIG2        0.0309
     19    H      -70.0260  -88.6530   -6.2210 H       2  LIG2        0.0310
     20    H      -70.5360  -85.8370   -7.1240 H       2  LIG2        0.0331
     21    H      -71.5720  -89.2210   -9.8330 H       2  LIG2        0.0269
     22    H      -71.3120  -89.6260   -8.1740 H       2  LIG2        0.0269
     23    H      -67.7600  -86.7740   -5.8950 H       2  LIG2        0.0301
     24    H      -71.2500  -85.1730   -4.9610 H       2  LIG2        0.0269
     25    H      -71.3470  -86.8210   -4.3690 H       2  LIG2        0.0269
     26    H      -71.9230  -86.7940   -9.1170 H       2  LIG2        0.0293
     27    H      -73.1830  -87.9440   -8.7920 H       2  LIG2        0.0293
     28    H      -67.3200  -89.8920  -10.1800 H       2  LIG2        0.0235
     29    H      -66.3970  -89.2500   -8.8210 H       2  LIG2        0.0235
     30    H      -67.1640  -88.1570   -9.9610 H       2  LIG2        0.0235
     31    H      -68.7920  -91.2850   -8.5250 H       2  LIG2        0.0235
     32    H      -69.6040  -90.5200   -7.1800 H       2  LIG2        0.0235
     33    H      -67.8620  -90.6490   -7.1740 H       2  LIG2        0.0235
     34    H      -69.2280  -86.2640   -3.5400 H       2  LIG2        0.0268
     35    H      -68.8930  -85.1620   -4.8600 H       2  LIG2        0.0268
     36    H      -68.9080  -88.9000   -4.0280 H       2  LIG2        0.0233
     37    H      -67.3900  -88.0350   -3.8100 H       2  LIG2        0.0233
     38    H      -67.5840  -89.1390   -5.1660 H       2  LIG2        0.0233
     39    H      -72.1560  -89.2330   -6.0510 H       2  LIG2        0.0257
     40    H      -73.7500  -88.7080   -6.5460 H       2  LIG2        0.0257
     41    H      -73.0210  -88.0330   -5.1130 H       2  LIG2        0.0257
     42    H      -72.7590  -85.4310   -7.4510 H       2  LIG2        0.2102
@<TRIPOS>BOND
     1    28    12    1
     2    18     4    1
     3    30    12    1
     4    21     7    1
     5    12    29    1
     6    12     3    1
     7    26    11    1
     8     4     7    1
     9     4     3    1
    10     4     2    1
    11     7    11    1
    12     7    22    1
    13    27    11    1
    14     3     2    1
    15     3    13    1
    16    31    13    1
    17    11     9    1
    18    17     2    1
    19     2     5    1
    20    13    32    1
    21    13    33    1
    22    42     1    1
    23    20     6    1
    24     9     1    1
    25     9     6    1
    26     9    16    1
    27    40    16    1
    28     5     6    1
    29     5    19    1
    30     5     8    1
    31     6    10    1
    32    16    39    1
    33    16    41    1
    34    23     8    1
    35     8    14    1
    36     8    15    1
    37    38    15    1
    38    10    24    1
    39    10    14    1
    40    10    25    1
    41    35    14    1
    42    14    34    1
    43    15    36    1
    44    15    37    1
