@<TRIPOS>MOLECULE
11996452_11_run_12.pdb
 42 44 0 0 0
SMALL
GASTEIGER

@<TRIPOS>ATOM
      1    O      -67.1490  -87.1590   -9.9720 O.3     2  LIG2       -0.3886
      2    C      -71.2460  -87.4620   -7.9880 C.3     2  LIG2       -0.0289
      3    C      -71.6260  -87.6830   -6.5360 C.3     2  LIG2       -0.0284
      4    C      -70.4360  -86.8060   -6.8610 C.3     2  LIG2       -0.0319
      5    C      -70.5430  -88.5290   -8.8660 C.3     2  LIG2       -0.0294
      6    C      -69.4310  -87.8810   -9.7330 C.3     2  LIG2       -0.0090
      7    C      -68.9640  -87.2230   -6.6320 C.3     2  LIG2       -0.0468
      8    C      -71.4560  -89.3360   -9.8360 C.3     2  LIG2       -0.0404
      9    C      -68.0260  -87.7810   -9.0470 C.3     2  LIG2        0.0664
     10    C      -69.4870  -88.6350  -11.0740 C.3     2  LIG2       -0.0471
     11    C      -68.0180  -86.8490   -7.7970 C.3     2  LIG2       -0.0237
     12    C      -72.9020  -86.9720   -6.0470 C.3     2  LIG2       -0.0593
     13    C      -71.4520  -89.0650   -5.8620 C.3     2  LIG2       -0.0593
     14    C      -70.9580  -89.0030  -11.2480 C.3     2  LIG2       -0.0498
     15    C      -72.9770  -89.1360   -9.6730 C.3     2  LIG2       -0.0621
     16    C      -67.3630  -89.1410   -8.7080 C.3     2  LIG2       -0.0358
     17    H      -71.8590  -86.7830   -8.5840 H       2  LIG2        0.0312
     18    H      -70.5710  -85.7390   -6.6740 H       2  LIG2        0.0309
     19    H      -70.0770  -89.2730   -8.2260 H       2  LIG2        0.0310
     20    H      -69.7390  -86.8580   -9.9650 H       2  LIG2        0.0331
     21    H      -68.6170  -86.7020   -5.7400 H       2  LIG2        0.0269
     22    H      -68.8590  -88.2800   -6.3970 H       2  LIG2        0.0269
     23    H      -71.2640  -90.3990   -9.6720 H       2  LIG2        0.0301
     24    H      -69.1320  -88.0210  -11.9030 H       2  LIG2        0.0269
     25    H      -68.8800  -89.5390  -11.0550 H       2  LIG2        0.0269
     26    H      -68.2630  -85.8280   -8.1010 H       2  LIG2        0.0293
     27    H      -67.0040  -86.7950   -7.3990 H       2  LIG2        0.0293
     28    H      -72.8670  -86.7990   -4.9720 H       2  LIG2        0.0235
     29    H      -73.7890  -87.5690   -6.2630 H       2  LIG2        0.0235
     30    H      -73.0410  -86.0020   -6.5270 H       2  LIG2        0.0235
     31    H      -71.3950  -88.9590   -4.7790 H       2  LIG2        0.0235
     32    H      -70.5630  -89.6090   -6.1690 H       2  LIG2        0.0235
     33    H      -72.3030  -89.7080   -6.0850 H       2  LIG2        0.0235
     34    H      -71.0780  -89.8430  -11.9330 H       2  LIG2        0.0268
     35    H      -71.5110  -88.1600  -11.6680 H       2  LIG2        0.0268
     36    H      -73.2790  -88.1090   -9.8820 H       2  LIG2        0.0233
     37    H      -73.3010  -89.3820   -8.6620 H       2  LIG2        0.0233
     38    H      -73.5300  -89.7810  -10.3580 H       2  LIG2        0.0233
     39    H      -67.9420  -89.7220   -7.9910 H       2  LIG2        0.0257
     40    H      -66.3730  -89.0020   -8.2690 H       2  LIG2        0.0257
     41    H      -67.2230  -89.7640   -9.5900 H       2  LIG2        0.0257
     42    H      -67.4940  -86.2870  -10.1790 H       2  LIG2        0.2102
@<TRIPOS>BOND
     1    34    14    1
     2    24    10    1
     3    35    14    1
     4    14    10    1
     5    14     8    1
     6    10    25    1
     7    10     6    1
     8    38    15    1
     9    42     1    1
    10     1     9    1
    11    20     6    1
    12    36    15    1
    13     8    15    1
    14     8    23    1
    15     8     5    1
    16     6     9    1
    17     6     5    1
    18    15    37    1
    19    41    16    1
    20     9    16    1
    21     9    11    1
    22     5    19    1
    23     5     2    1
    24    16    40    1
    25    16    39    1
    26    17     2    1
    27    26    11    1
    28     2     4    1
    29     2     3    1
    30    11    27    1
    31    11     7    1
    32     4    18    1
    33     4     7    1
    34     4     3    1
    35     7    22    1
    36     7    21    1
    37     3    12    1
    38     3    13    1
    39    30    12    1
    40    29    12    1
    41    32    13    1
    42    33    13    1
    43    12    28    1
    44    13    31    1
@<TRIPOS>MOLECULE
11996452_11_run_17.pdb
 42 44 0 0 0
SMALL
GASTEIGER

@<TRIPOS>ATOM
      1    O      -71.3780  -88.6840  -12.1790 O.3     2  LIG2       -0.3886
      2    C      -69.8130  -88.1190   -7.9300 C.3     2  LIG2       -0.0289
      3    C      -68.4120  -88.2640   -7.3670 C.3     2  LIG2       -0.0284
      4    C      -68.5940  -87.6590   -8.7420 C.3     2  LIG2       -0.0319
      5    C      -70.6490  -89.3060   -8.4770 C.3     2  LIG2       -0.0294
      6    C      -71.3830  -88.9040   -9.7840 C.3     2  LIG2       -0.0090
      7    C      -68.2350  -88.3820  -10.0620 C.3     2  LIG2       -0.0468
      8    C      -71.7250  -89.8930   -7.5180 C.3     2  LIG2       -0.0404
      9    C      -70.5610  -89.1110  -11.1010 C.3     2  LIG2        0.0664
     10    C      -72.7440  -89.6190   -9.7050 C.3     2  LIG2       -0.0471
     11    C      -69.2910  -88.2100  -11.1780 C.3     2  LIG2       -0.0237
     12    C      -68.0300  -87.3000   -6.2280 C.3     2  LIG2       -0.0593
     13    C      -67.7630  -89.6550   -7.1760 C.3     2  LIG2       -0.0593
     14    C      -73.0720  -89.6640   -8.2150 C.3     2  LIG2       -0.0498
     15    C      -71.7060  -89.3740   -6.0640 C.3     2  LIG2       -0.0621
     16    C      -70.1980  -90.5830  -11.4230 C.3     2  LIG2       -0.0358
     17    H      -70.4470  -87.3210   -7.5390 H       2  LIG2        0.0312
     18    H      -68.3910  -86.5890   -8.8180 H       2  LIG2        0.0309
     19    H      -69.9870  -90.1360   -8.7080 H       2  LIG2        0.0310
     20    H      -71.6160  -87.8370   -9.7230 H       2  LIG2        0.0331
     21    H      -67.2990  -87.9530  -10.4190 H       2  LIG2        0.0269
     22    H      -68.0200  -89.4380   -9.9170 H       2  LIG2        0.0269
     23    H      -71.5730  -90.9730   -7.4620 H       2  LIG2        0.0301
     24    H      -73.5170  -89.0890  -10.2640 H       2  LIG2        0.0269
     25    H      -72.6920  -90.6320  -10.1020 H       2  LIG2        0.0269
     26    H      -69.5880  -87.1590  -11.1870 H       2  LIG2        0.0293
     27    H      -68.7940  -88.3770  -12.1360 H       2  LIG2        0.0293
     28    H      -66.9520  -87.1460   -6.1890 H       2  LIG2        0.0235
     29    H      -68.3480  -87.6930   -5.2620 H       2  LIG2        0.0235
     30    H      -68.4940  -86.3200   -6.3460 H       2  LIG2        0.0235
     31    H      -66.6770  -89.5720   -7.1430 H       2  LIG2        0.0235
     32    H      -67.9970  -90.3750   -7.9560 H       2  LIG2        0.0235
     33    H      -68.0870  -90.1010   -6.2350 H       2  LIG2        0.0235
     34    H      -73.7890  -90.4540   -7.9900 H       2  LIG2        0.0268
     35    H      -73.5190  -88.7200   -7.8980 H       2  LIG2        0.0268
     36    H      -71.9140  -88.3040   -6.0100 H       2  LIG2        0.0233
     37    H      -70.7380  -89.5520   -5.5950 H       2  LIG2        0.0233
     38    H      -72.4590  -89.8810   -5.4600 H       2  LIG2        0.0233
     39    H      -69.5580  -91.0320  -10.6650 H       2  LIG2        0.0257
     40    H      -69.6600  -90.6620  -12.3700 H       2  LIG2        0.0257
     41    H      -71.0790  -91.2160  -11.5170 H       2  LIG2        0.0257
     42    H      -71.5390  -87.7420  -12.0840 H       2  LIG2        0.2102
@<TRIPOS>BOND
     1    40    16    1
     2     1    42    1
     3     1     9    1
     4    27    11    1
     5    41    16    1
     6    16     9    1
     7    16    39    1
     8    26    11    1
     9    11     9    1
    10    11     7    1
    11     9     6    1
    12    21     7    1
    13    24    10    1
    14    25    10    1
    15     7    22    1
    16     7     4    1
    17     6    20    1
    18     6    10    1
    19     6     5    1
    20    10    14    1
    21    18     4    1
    22     4     2    1
    23     4     3    1
    24    19     5    1
    25     5     2    1
    26     5     8    1
    27    14    34    1
    28    14    35    1
    29    14     8    1
    30    32    13    1
    31     2    17    1
    32     2     3    1
    33     8    23    1
    34     8    15    1
    35     3    13    1
    36     3    12    1
    37    13    31    1
    38    13    33    1
    39    30    12    1
    40    12    28    1
    41    12    29    1
    42    15    36    1
    43    15    37    1
    44    15    38    1
@<TRIPOS>MOLECULE
11996452_11_run_9.pdb
 42 44 0 0 0
SMALL
GASTEIGER

@<TRIPOS>ATOM
      1    O      -60.9160  -81.9460  -14.1790 O.3     2  LIG2       -0.3886
      2    C      -62.4420  -78.1730  -12.1150 C.3     2  LIG2       -0.0289
      3    C      -63.7950  -77.8610  -11.5020 C.3     2  LIG2       -0.0284
      4    C      -63.2150  -79.2500  -11.3390 C.3     2  LIG2       -0.0319
      5    C      -62.2130  -78.3890  -13.6330 C.3     2  LIG2       -0.0294
      6    C      -61.2510  -79.5830  -13.8790 C.3     2  LIG2       -0.0090
      7    C      -63.7400  -80.5010  -12.0820 C.3     2  LIG2       -0.0468
      8    C      -61.6400  -77.1780  -14.4260 C.3     2  LIG2       -0.0404
      9    C      -61.9400  -80.9870  -13.9650 C.3     2  LIG2        0.0664
     10    C      -60.4020  -79.1590  -15.0910 C.3     2  LIG2       -0.0471
     11    C      -62.6230  -81.4180  -12.6320 C.3     2  LIG2       -0.0237
     12    C      -63.7890  -76.9540  -10.2580 C.3     2  LIG2       -0.0593
     13    C      -65.0370  -77.6030  -12.3880 C.3     2  LIG2       -0.0593
     14    C      -60.2820  -77.6420  -14.9680 C.3     2  LIG2       -0.0498
     15    C      -61.5550  -75.8380  -13.6650 C.3     2  LIG2       -0.0621
     16    C      -62.9190  -81.1650  -15.1540 C.3     2  LIG2       -0.0358
     17    H      -61.5500  -77.7860  -11.6200 H       2  LIG2        0.0312
     18    H      -62.8820  -79.5070  -10.3320 H       2  LIG2        0.0309
     19    H      -63.1610  -78.6210  -14.1110 H       2  LIG2        0.0310
     20    H      -60.5510  -79.6280  -13.0400 H       2  LIG2        0.0331
     21    H      -64.3240  -81.0790  -11.3660 H       2  LIG2        0.0269
     22    H      -64.4390  -80.2540  -12.8780 H       2  LIG2        0.0269
     23    H      -62.2860  -77.0040  -15.2880 H       2  LIG2        0.0301
     24    H      -59.4190  -79.6350  -15.0870 H       2  LIG2        0.0269
     25    H      -60.8850  -79.4160  -16.0320 H       2  LIG2        0.0269
     26    H      -61.8670  -81.5160  -11.8490 H       2  LIG2        0.0293
     27    H      -63.0430  -82.4180  -12.7540 H       2  LIG2        0.0293
     28    H      -64.6660  -77.1350   -9.6360 H       2  LIG2        0.0235
     29    H      -63.7900  -75.9010  -10.5420 H       2  LIG2        0.0235
     30    H      -62.9090  -77.1190   -9.6340 H       2  LIG2        0.0235
     31    H      -65.9530  -77.7810  -11.8260 H       2  LIG2        0.0235
     32    H      -65.0930  -78.2210  -13.2810 H       2  LIG2        0.0235
     33    H      -65.0550  -76.5660  -12.7270 H       2  LIG2        0.0235
     34    H      -60.0470  -77.1840  -15.9290 H       2  LIG2        0.0268
     35    H      -59.4770  -77.3820  -14.2780 H       2  LIG2        0.0268
     36    H      -60.8760  -75.8940  -12.8140 H       2  LIG2        0.0233
     37    H      -62.5340  -75.5340  -13.2940 H       2  LIG2        0.0233
     38    H      -61.1930  -75.0430  -14.3170 H       2  LIG2        0.0233
     39    H      -63.7660  -80.4820  -15.1050 H       2  LIG2        0.0257
     40    H      -63.3340  -82.1750  -15.1790 H       2  LIG2        0.0257
     41    H      -62.4340  -81.0090  -16.1170 H       2  LIG2        0.0257
     42    H      -61.3220  -82.8120  -14.2530 H       2  LIG2        0.2102
@<TRIPOS>BOND
     1    41    16    1
     2    25    10    1
     3    34    14    1
     4    23     8    1
     5    40    16    1
     6    16    39    1
     7    16     9    1
     8    10    24    1
     9    10    14    1
    10    10     6    1
    11    14     8    1
    12    14    35    1
    13     8    15    1
    14     8     5    1
    15    38    15    1
    16    42     1    1
    17     1     9    1
    18    19     5    1
    19     9     6    1
    20     9    11    1
    21     6     5    1
    22     6    20    1
    23    15    37    1
    24    15    36    1
    25     5     2    1
    26    32    13    1
    27    22     7    1
    28    27    11    1
    29    33    13    1
    30    11     7    1
    31    11    26    1
    32    13    31    1
    33    13     3    1
    34     2    17    1
    35     2     3    1
    36     2     4    1
    37     7    21    1
    38     7     4    1
    39     3     4    1
    40     3    12    1
    41     4    18    1
    42    29    12    1
    43    12    28    1
    44    12    30    1
@<TRIPOS>MOLECULE
11996452_11_run_7.pdb
 42 44 0 0 0
SMALL
GASTEIGER

@<TRIPOS>ATOM
      1    O      -73.0000  -86.1590   -6.9220 O.3     2  LIG2       -0.3886
      2    C      -68.8760  -87.9470   -7.7030 C.3     2  LIG2       -0.0289
      3    C      -68.4750  -89.2570   -8.3550 C.3     2  LIG2       -0.0284
      4    C      -69.6500  -88.4840   -8.9160 C.3     2  LIG2       -0.0319
      5    C      -69.6200  -87.8520   -6.3460 C.3     2  LIG2       -0.0294
      6    C      -70.7330  -86.7710   -6.4040 C.3     2  LIG2       -0.0090
      7    C      -71.1270  -88.9140   -8.7530 C.3     2  LIG2       -0.0468
      8    C      -68.7450  -87.5300   -5.0990 C.3     2  LIG2       -0.0404
      9    C      -72.1220  -87.2730   -6.9260 C.3     2  LIG2        0.0664
     10    C      -70.7180  -86.1170   -5.0110 C.3     2  LIG2       -0.0471
     11    C      -72.0840  -87.7490   -8.4100 C.3     2  LIG2       -0.0237
     12    C      -67.1750  -89.2420   -9.1790 C.3     2  LIG2       -0.0593
     13    C      -68.6700  -90.6090   -7.6260 C.3     2  LIG2       -0.0593
     14    C      -69.2600  -86.1870   -4.5660 C.3     2  LIG2       -0.0498
     15    C      -67.2160  -87.5450   -5.3110 C.3     2  LIG2       -0.0621
     16    C      -72.8100  -88.3380   -6.0360 C.3     2  LIG2       -0.0358
     17    H      -68.2580  -87.0670   -7.8910 H       2  LIG2        0.0312
     18    H      -69.4860  -88.0170   -9.8880 H       2  LIG2        0.0309
     19    H      -70.0920  -88.8050   -6.1260 H       2  LIG2        0.0310
     20    H      -70.4030  -85.9880   -7.0930 H       2  LIG2        0.0331
     21    H      -71.4450  -89.3380   -9.7050 H       2  LIG2        0.0269
     22    H      -71.2530  -89.7190   -8.0320 H       2  LIG2        0.0269
     23    H      -68.9590  -88.2800   -4.3350 H       2  LIG2        0.0301
     24    H      -71.0730  -85.0850   -5.0400 H       2  LIG2        0.0269
     25    H      -71.3460  -86.6570   -4.3050 H       2  LIG2        0.0269
     26    H      -71.8200  -86.9090   -9.0570 H       2  LIG2        0.0293
     27    H      -73.0900  -88.0430   -8.7150 H       2  LIG2        0.0293
     28    H      -67.1850  -90.0170   -9.9440 H       2  LIG2        0.0235
     29    H      -66.3060  -89.4120   -8.5410 H       2  LIG2        0.0235
     30    H      -67.0200  -88.2870   -9.6850 H       2  LIG2        0.0235
     31    H      -68.7050  -91.4290   -8.3420 H       2  LIG2        0.0235
     32    H      -69.5780  -90.6750   -7.0320 H       2  LIG2        0.0235
     33    H      -67.8390  -90.7990   -6.9470 H       2  LIG2        0.0235
     34    H      -69.1730  -86.1160   -3.4810 H       2  LIG2        0.0268
     35    H      -68.6950  -85.3560   -4.9920 H       2  LIG2        0.0268
     36    H      -66.8940  -86.7780   -6.0170 H       2  LIG2        0.0233
     37    H      -66.8800  -88.5110   -5.6880 H       2  LIG2        0.0233
     38    H      -66.6920  -87.3610   -4.3720 H       2  LIG2        0.0233
     39    H      -72.2330  -89.2590   -5.9610 H       2  LIG2        0.0257
     40    H      -73.7890  -88.6160   -6.4330 H       2  LIG2        0.0257
     41    H      -72.9820  -87.9820   -5.0210 H       2  LIG2        0.0257
     42    H      -72.6080  -85.4600   -7.4510 H       2  LIG2        0.2102
@<TRIPOS>BOND
     1    28    12    1
     2    18     4    1
     3    21     7    1
     4    30    12    1
     5    12    29    1
     6    12     3    1
     7    26    11    1
     8     4     7    1
     9     4     3    1
    10     4     2    1
    11     7    11    1
    12     7    22    1
    13    27    11    1
    14    11     9    1
    15     3     2    1
    16     3    13    1
    17    31    13    1
    18    17     2    1
    19     2     5    1
    20    13    32    1
    21    13    33    1
    22    42     1    1
    23    20     6    1
    24     9     1    1
    25     9     6    1
    26     9    16    1
    27    40    16    1
    28     6     5    1
    29     6    10    1
    30     5    19    1
    31     5     8    1
    32    16    39    1
    33    16    41    1
    34    36    15    1
    35    37    15    1
    36    15     8    1
    37    15    38    1
    38     8    14    1
    39     8    23    1
    40    24    10    1
    41    10    14    1
    42    10    25    1
    43    35    14    1
    44    14    34    1
@<TRIPOS>MOLECULE
11996452_11_run_22.pdb
 42 44 0 0 0
SMALL
GASTEIGER

@<TRIPOS>ATOM
      1    O      -66.4080  -88.9060   -9.0340 O.3     2  LIG2       -0.3886
      2    C      -70.7990  -90.1420   -9.1410 C.3     2  LIG2       -0.0289
      3    C      -71.9920  -89.4890   -9.8140 C.3     2  LIG2       -0.0284
      4    C      -70.6560  -89.4920  -10.5250 C.3     2  LIG2       -0.0319
      5    C      -70.0270  -89.5090   -7.9540 C.3     2  LIG2       -0.0294
      6    C      -68.4960  -89.6920   -8.1360 C.3     2  LIG2       -0.0090
      7    C      -69.7630  -88.2410  -10.6950 C.3     2  LIG2       -0.0468
      8    C      -70.3790  -90.0460   -6.5360 C.3     2  LIG2       -0.0404
      9    C      -67.7840  -88.5690   -8.9630 C.3     2  LIG2        0.0664
     10    C      -67.9600  -89.9420   -6.7150 C.3     2  LIG2       -0.0471
     11    C      -68.2600  -88.5050  -10.4470 C.3     2  LIG2       -0.0237
     12    C      -73.0730  -90.4400  -10.3610 C.3     2  LIG2       -0.0593
     13    C      -72.6110  -88.1830   -9.2610 C.3     2  LIG2       -0.0593
     14    C      -69.0890  -90.6780   -5.9990 C.3     2  LIG2       -0.0498
     15    C      -71.5950  -90.9920   -6.4430 C.3     2  LIG2       -0.0621
     16    C      -67.8260  -87.1580   -8.3240 C.3     2  LIG2       -0.0358
     17    H      -70.7480  -91.2320   -9.1260 H       2  LIG2        0.0312
     18    H      -70.5890  -90.1390  -11.4010 H       2  LIG2        0.0309
     19    H      -70.2340  -88.4440   -7.9170 H       2  LIG2        0.0310
     20    H      -68.3320  -90.6300   -8.6740 H       2  LIG2        0.0331
     21    H      -69.8760  -87.9030  -11.7250 H       2  LIG2        0.0269
     22    H      -70.0950  -87.4020  -10.0880 H       2  LIG2        0.0269
     23    H      -70.6050  -89.1880   -5.8990 H       2  LIG2        0.0301
     24    H      -67.0440  -90.5360   -6.7220 H       2  LIG2        0.0269
     25    H      -67.7390  -89.0100   -6.1960 H       2  LIG2        0.0269
     26    H      -68.0050  -89.4400  -10.9520 H       2  LIG2        0.0293
     27    H      -67.6940  -87.7320  -10.9690 H       2  LIG2        0.0293
     28    H      -73.6250  -89.9780  -11.1790 H       2  LIG2        0.0235
     29    H      -73.7890  -90.7070   -9.5820 H       2  LIG2        0.0235
     30    H      -72.6490  -91.3710  -10.7400 H       2  LIG2        0.0235
     31    H      -73.1680  -87.6620  -10.0390 H       2  LIG2        0.0235
     32    H      -71.8890  -87.4730   -8.8650 H       2  LIG2        0.0235
     33    H      -73.3060  -88.4040   -8.4500 H       2  LIG2        0.0235
     34    H      -69.0040  -90.5770   -4.9160 H       2  LIG2        0.0268
     35    H      -69.0520  -91.7440   -6.2300 H       2  LIG2        0.0268
     36    H      -71.4380  -91.9160   -7.0010 H       2  LIG2        0.0233
     37    H      -72.4960  -90.5150   -6.8300 H       2  LIG2        0.0233
     38    H      -71.7930  -91.2690   -5.4070 H       2  LIG2        0.0233
     39    H      -68.8400  -86.7750   -8.2180 H       2  LIG2        0.0257
     40    H      -67.2810  -86.4300   -8.9290 H       2  LIG2        0.0257
     41    H      -67.3690  -87.1370   -7.3350 H       2  LIG2        0.0257
     42    H      -65.9920  -88.6590   -8.2050 H       2  LIG2        0.2102
@<TRIPOS>BOND
     1    21     7    1
     2    18     4    1
     3    28    12    1
     4    27    11    1
     5    26    11    1
     6    30    12    1
     7     7     4    1
     8     7    11    1
     9     7    22    1
    10     4     3    1
    11     4     2    1
    12    11     9    1
    13    12     3    1
    14    12    29    1
    15    31    13    1
    16     3    13    1
    17     3     2    1
    18    13    32    1
    19    13    33    1
    20     2    17    1
    21     2     5    1
    22     1     9    1
    23     1    42    1
    24     9    16    1
    25     9     6    1
    26    40    16    1
    27    20     6    1
    28    16    39    1
    29    16    41    1
    30     6     5    1
    31     6    10    1
    32     5    19    1
    33     5     8    1
    34    36    15    1
    35    37    15    1
    36    24    10    1
    37    10    25    1
    38    10    14    1
    39     8    15    1
    40     8    14    1
    41     8    23    1
    42    15    38    1
    43    35    14    1
    44    14    34    1
@<TRIPOS>MOLECULE
11996452_11_run_12.pdb
 42 44 0 0 0
SMALL
GASTEIGER

@<TRIPOS>ATOM
      1    O      -71.9270  -86.1860   -6.6790 O.3     2  LIG2       -0.3886
      2    C      -69.7350  -88.7560   -9.7470 C.3     2  LIG2       -0.0289
      3    C      -70.2250  -89.9170  -10.5920 C.3     2  LIG2       -0.0284
      4    C      -71.1470  -88.7410  -10.3500 C.3     2  LIG2       -0.0319
      5    C      -69.6010  -88.8120   -8.2020 C.3     2  LIG2       -0.0294
      6    C      -70.1100  -87.4940   -7.5590 C.3     2  LIG2       -0.0090
      7    C      -72.3790  -88.7860   -9.4160 C.3     2  LIG2       -0.0468
      8    C      -68.1710  -89.0630   -7.6410 C.3     2  LIG2       -0.0404
      9    C      -71.6450  -87.4560   -7.2450 C.3     2  LIG2        0.0664
     10    C      -69.1600  -87.2430   -6.3750 C.3     2  LIG2       -0.0471
     11    C      -72.5350  -87.5330   -8.5230 C.3     2  LIG2       -0.0237
     12    C      -69.6140  -90.0420  -12.0000 C.3     2  LIG2       -0.0593
     13    C      -70.5020  -91.3050   -9.9670 C.3     2  LIG2       -0.0593
     14    C      -67.8180  -87.8110   -6.8280 C.3     2  LIG2       -0.0498
     15    C      -67.0840  -89.4330   -8.6730 C.3     2  LIG2       -0.0621
     16    C      -72.1240  -88.4870   -6.1920 C.3     2  LIG2       -0.0358
     17    H      -69.0260  -88.0560  -10.1920 H       2  LIG2        0.0312
     18    H      -71.3380  -88.1050  -11.2150 H       2  LIG2        0.0309
     19    H      -70.2070  -89.6270   -7.8170 H       2  LIG2        0.0310
     20    H      -69.9140  -86.6800   -8.2630 H       2  LIG2        0.0331
     21    H      -73.2620  -88.8530  -10.0510 H       2  LIG2        0.0269
     22    H      -72.4080  -89.6830   -8.8010 H       2  LIG2        0.0269
     23    H      -68.2270  -89.8970   -6.9380 H       2  LIG2        0.0301
     24    H      -69.0790  -86.1810   -6.1350 H       2  LIG2        0.0269
     25    H      -69.4940  -87.7560   -5.4740 H       2  LIG2        0.0269
     26    H      -72.3480  -86.6590   -9.1510 H       2  LIG2        0.0293
     27    H      -73.5840  -87.4590   -8.2310 H       2  LIG2        0.0293
     28    H      -70.2890  -90.5660  -12.6760 H       2  LIG2        0.0235
     29    H      -68.6740  -90.5950  -11.9700 H       2  LIG2        0.0235
     30    H      -69.4010  -89.0680  -12.4440 H       2  LIG2        0.0235
     31    H      -71.1880  -91.8770  -10.5920 H       2  LIG2        0.0235
     32    H      -70.9390  -91.2740   -8.9720 H       2  LIG2        0.0235
     33    H      -69.5780  -91.8770   -9.8840 H       2  LIG2        0.0235
     34    H      -67.1790  -88.0440   -5.9750 H       2  LIG2        0.0268
     35    H      -67.2870  -87.0830   -7.4430 H       2  LIG2        0.0268
     36    H      -66.9080  -88.6280   -9.3880 H       2  LIG2        0.0233
     37    H      -67.3610  -90.3260   -9.2340 H       2  LIG2        0.0233
     38    H      -66.1340  -89.6410   -8.1790 H       2  LIG2        0.0233
     39    H      -71.9680  -89.5160   -6.5120 H       2  LIG2        0.0257
     40    H      -73.1920  -88.3820   -5.9900 H       2  LIG2        0.0257
     41    H      -71.6180  -88.3670   -5.2340 H       2  LIG2        0.0257
     42    H      -71.7890  -85.5160   -7.3520 H       2  LIG2        0.2102
@<TRIPOS>BOND
     1    28    12    1
     2    30    12    1
     3    12    29    1
     4    12     3    1
     5    18     4    1
     6     3     4    1
     7     3    13    1
     8     3     2    1
     9    31    13    1
    10     4     2    1
    11     4     7    1
    12    17     2    1
    13    21     7    1
    14    13    33    1
    15    13    32    1
    16     2     5    1
    17     7    22    1
    18     7    11    1
    19    36    15    1
    20    37    15    1
    21    26    11    1
    22    15    38    1
    23    15     8    1
    24    11    27    1
    25    11     9    1
    26    20     6    1
    27     5    19    1
    28     5     8    1
    29     5     6    1
    30     8    23    1
    31     8    14    1
    32     6     9    1
    33     6    10    1
    34    35    14    1
    35    42     1    1
    36     9     1    1
    37     9    16    1
    38    14    10    1
    39    14    34    1
    40    39    16    1
    41    10    24    1
    42    10    25    1
    43    16    40    1
    44    16    41    1
@<TRIPOS>MOLECULE
11996452_11_run_17.pdb
 42 44 0 0 0
SMALL
GASTEIGER

@<TRIPOS>ATOM
      1    O      -66.9540  -88.0850   -6.1800 O.3     2  LIG2       -0.3886
      2    C      -71.0550  -89.2090   -7.8340 C.3     2  LIG2       -0.0289
      3    C      -71.5420  -89.3310   -9.2660 C.3     2  LIG2       -0.0284
      4    C      -70.1430  -89.7940   -8.9210 C.3     2  LIG2       -0.0319
      5    C      -70.6390  -87.8660   -7.1770 C.3     2  LIG2       -0.0294
      6    C      -69.3540  -88.0470   -6.3250 C.3     2  LIG2       -0.0090
      7    C      -68.8560  -89.0400   -9.3300 C.3     2  LIG2       -0.0468
      8    C      -71.6970  -87.1890   -6.2580 C.3     2  LIG2       -0.0404
      9    C      -68.0070  -87.8750   -7.1060 C.3     2  LIG2        0.0664
     10    C      -69.5610  -87.1330   -5.1040 C.3     2  LIG2       -0.0471
     11    C      -67.7950  -88.9580   -8.2080 C.3     2  LIG2       -0.0237
     12    C      -72.5900  -90.4260   -9.5400 C.3     2  LIG2       -0.0593
     13    C      -71.7870  -88.0780  -10.1400 C.3     2  LIG2       -0.0593
     14    C      -71.0670  -87.1490   -4.8600 C.3     2  LIG2       -0.0498
     15    C      -73.1090  -87.8130   -6.2620 C.3     2  LIG2       -0.0621
     16    C      -67.7630  -86.4600   -7.6880 C.3     2  LIG2       -0.0358
     17    H      -71.4290  -89.9230   -7.0990 H       2  LIG2        0.0312
     18    H      -69.9850  -90.8740   -8.9440 H       2  LIG2        0.0309
     19    H      -70.4250  -87.1370   -7.9530 H       2  LIG2        0.0310
     20    H      -69.3570  -89.0650   -5.9250 H       2  LIG2        0.0331
     21    H      -68.4150  -89.5850  -10.1660 H       2  LIG2        0.0269
     22    H      -69.0580  -88.0450   -9.7200 H       2  LIG2        0.0269
     23    H      -71.8150  -86.1550   -6.5860 H       2  LIG2        0.0301
     24    H      -69.0150  -87.4900   -4.2290 H       2  LIG2        0.0269
     25    H      -69.2300  -86.1140   -5.3020 H       2  LIG2        0.0269
     26    H      -67.7340  -89.9450   -7.7430 H       2  LIG2        0.0293
     27    H      -66.8220  -88.8010   -8.6790 H       2  LIG2        0.0293
     28    H      -72.5540  -90.7520  -10.5790 H       2  LIG2        0.0235
     29    H      -73.5980  -90.0610   -9.3360 H       2  LIG2        0.0235
     30    H      -72.4350  -91.3080   -8.9170 H       2  LIG2        0.0235
     31    H      -71.7490  -88.3350  -11.1990 H       2  LIG2        0.0235
     32    H      -71.0710  -87.2740   -9.9890 H       2  LIG2        0.0235
     33    H      -72.7730  -87.6590   -9.9390 H       2  LIG2        0.0235
     34    H      -71.3860  -86.2740   -4.2930 H       2  LIG2        0.0268
     35    H      -71.3470  -88.0310   -4.2810 H       2  LIG2        0.0268
     36    H      -73.1050  -88.8360   -5.8850 H       2  LIG2        0.0233
     37    H      -73.5310  -87.8260   -7.2670 H       2  LIG2        0.0233
     38    H      -73.7890  -87.2390   -5.6310 H       2  LIG2        0.0233
     39    H      -68.5100  -86.1760   -8.4290 H       2  LIG2        0.0257
     40    H      -66.7930  -86.3960   -8.1850 H       2  LIG2        0.0257
     41    H      -67.7630  -85.6890   -6.9180 H       2  LIG2        0.0257
     42    H      -66.1180  -87.9800   -6.6410 H       2  LIG2        0.2102
@<TRIPOS>BOND
     1    31    13    1
     2    28    12    1
     3    21     7    1
     4    13    32    1
     5    13    33    1
     6    13     3    1
     7    22     7    1
     8    12    29    1
     9    12     3    1
    10    12    30    1
    11     7     4    1
    12     7    11    1
    13     3     4    1
    14     3     2    1
    15    18     4    1
    16     4     2    1
    17    27    11    1
    18    39    16    1
    19    11    26    1
    20    11     9    1
    21    40    16    1
    22    19     5    1
    23     2     5    1
    24     2    17    1
    25    16     9    1
    26    16    41    1
    27    37    15    1
    28     5     6    1
    29     5     8    1
    30     9     6    1
    31     9     1    1
    32    42     1    1
    33    23     8    1
    34     6    20    1
    35     6    10    1
    36    15     8    1
    37    15    36    1
    38    15    38    1
    39     8    14    1
    40    25    10    1
    41    10    14    1
    42    10    24    1
    43    14    34    1
    44    14    35    1
@<TRIPOS>MOLECULE
11996452_11_run_23.pdb
 42 44 0 0 0
SMALL
GASTEIGER

@<TRIPOS>ATOM
      1    O      -71.7970  -90.7070  -11.4290 O.3     2  LIG2       -0.3886
      2    C      -70.4070  -89.0270   -7.4210 C.3     2  LIG2       -0.0289
      3    C      -71.2030  -88.4840   -6.2490 C.3     2  LIG2       -0.0284
      4    C      -71.7320  -89.6820   -7.0070 C.3     2  LIG2       -0.0319
      5    C      -70.3370  -88.3360   -8.8080 C.3     2  LIG2       -0.0294
      6    C      -70.4400  -89.3840   -9.9490 C.3     2  LIG2       -0.0090
      7    C      -72.9440  -89.6340   -7.9660 C.3     2  LIG2       -0.0468
      8    C      -69.0650  -87.4840   -9.0930 C.3     2  LIG2       -0.0404
      9    C      -71.8980  -89.7370  -10.3990 C.3     2  LIG2        0.0664
     10    C      -69.4900  -88.8660  -11.0440 C.3     2  LIG2       -0.0471
     11    C      -72.7360  -90.4250   -9.2790 C.3     2  LIG2       -0.0237
     12    C      -70.6210  -88.7480   -4.8470 C.3     2  LIG2       -0.0593
     13    C      -71.9040  -87.1060   -6.3230 C.3     2  LIG2       -0.0593
     14    C      -68.3720  -88.1590  -10.2830 C.3     2  LIG2       -0.0498
     15    C      -68.1140  -87.2500   -7.8990 C.3     2  LIG2       -0.0621
     16    C      -72.6940  -88.5620  -11.0220 C.3     2  LIG2       -0.0358
     17    H      -69.5080  -89.6070   -7.2100 H       2  LIG2        0.0312
     18    H      -71.6990  -90.6320   -6.4700 H       2  LIG2        0.0309
     19    H      -71.1710  -87.6480   -8.9110 H       2  LIG2        0.0310
     20    H      -69.9880  -90.3130   -9.5920 H       2  LIG2        0.0331
     21    H      -73.7890  -90.0780   -7.4400 H       2  LIG2        0.0269
     22    H      -73.2590  -88.6180   -8.1940 H       2  LIG2        0.0269
     23    H      -69.3890  -86.4970   -9.4280 H       2  LIG2        0.0301
     24    H      -69.0970  -89.6770  -11.6600 H       2  LIG2        0.0269
     25    H      -69.9860  -88.1620  -11.7100 H       2  LIG2        0.0269
     26    H      -72.2770  -91.3810   -9.0150 H       2  LIG2        0.0293
     27    H      -73.7210  -90.6790   -9.6750 H       2  LIG2        0.0293
     28    H      -71.4050  -88.7490   -4.0910 H       2  LIG2        0.0235
     29    H      -69.8940  -87.9820   -4.5760 H       2  LIG2        0.0235
     30    H      -70.1120  -89.7110   -4.7890 H       2  LIG2        0.0235
     31    H      -72.7130  -87.0480   -5.5970 H       2  LIG2        0.0235
     32    H      -72.3360  -86.8710   -7.2920 H       2  LIG2        0.0235
     33    H      -71.1980  -86.3070   -6.0950 H       2  LIG2        0.0235
     34    H      -67.8550  -87.4380  -10.9180 H       2  LIG2        0.0268
     35    H      -67.6290  -88.8830   -9.9430 H       2  LIG2        0.0268
     36    H      -67.6840  -88.1820   -7.5310 H       2  LIG2        0.0233
     37    H      -68.6340  -86.7690   -7.0710 H       2  LIG2        0.0233
     38    H      -67.2850  -86.6020   -8.1850 H       2  LIG2        0.0233
     39    H      -72.8490  -87.7420  -10.3220 H       2  LIG2        0.0257
     40    H      -73.6860  -88.8830  -11.3490 H       2  LIG2        0.0257
     41    H      -72.2010  -88.1470  -11.9010 H       2  LIG2        0.0257
     42    H      -71.3040  -91.4590  -11.0910 H       2  LIG2        0.2102
@<TRIPOS>BOND
     1    41    16    1
     2    25    10    1
     3    24    10    1
     4     1    42    1
     5     1     9    1
     6    40    16    1
     7    10    14    1
     8    10     6    1
     9    16     9    1
    10    16    39    1
    11    34    14    1
    12     9     6    1
    13     9    11    1
    14    14    35    1
    15    14     8    1
    16     6    20    1
    17     6     5    1
    18    27    11    1
    19    23     8    1
    20    11    26    1
    21    11     7    1
    22     8     5    1
    23     8    15    1
    24    19     5    1
    25     5     2    1
    26    22     7    1
    27    38    15    1
    28     7    21    1
    29     7     4    1
    30    15    36    1
    31    15    37    1
    32     2    17    1
    33     2     4    1
    34     2     3    1
    35    32    13    1
    36     4    18    1
    37     4     3    1
    38    13     3    1
    39    13    33    1
    40    13    31    1
    41     3    12    1
    42    12    30    1
    43    12    29    1
    44    12    28    1
@<TRIPOS>MOLECULE
11996452_11_run_10.pdb
 42 44 0 0 0
SMALL
GASTEIGER

@<TRIPOS>ATOM
      1    O      -66.6030  -88.2560   -9.1790 O.3     2  LIG2       -0.3886
      2    C      -69.3780  -89.3840   -5.7380 C.3     2  LIG2       -0.0289
      3    C      -70.1930  -90.6430   -5.4980 C.3     2  LIG2       -0.0284
      4    C      -68.8110  -90.7630   -6.1050 C.3     2  LIG2       -0.0319
      5    C      -69.6620  -88.3820   -6.8870 C.3     2  LIG2       -0.0294
      6    C      -68.3360  -87.9150   -7.5470 C.3     2  LIG2       -0.0090
      7    C      -68.5440  -91.1120   -7.5880 C.3     2  LIG2       -0.0468
      8    C      -70.4510  -87.0960   -6.5040 C.3     2  LIG2       -0.0404
      9    C      -67.8150  -88.8250   -8.7110 C.3     2  LIG2        0.0664
     10    C      -68.5680  -86.4320   -7.8860 C.3     2  LIG2       -0.0471
     11    C      -67.4300  -90.2610   -8.2420 C.3     2  LIG2       -0.0237
     12    C      -70.3490  -91.0860   -4.0320 C.3     2  LIG2       -0.0593
     13    C      -71.4670  -90.9440   -6.3230 C.3     2  LIG2       -0.0593
     14    C      -69.5020  -85.9250   -6.7900 C.3     2  LIG2       -0.0498
     15    C      -71.0430  -87.0530   -5.0790 C.3     2  LIG2       -0.0621
     16    C      -68.7390  -88.8940   -9.9530 C.3     2  LIG2       -0.0358
     17    H      -68.9150  -88.8980   -4.8780 H       2  LIG2        0.0312
     18    H      -68.0490  -91.2020   -5.4600 H       2  LIG2        0.0309
     19    H      -70.2610  -88.8690   -7.6510 H       2  LIG2        0.0310
     20    H      -67.5600  -87.9150   -6.7770 H       2  LIG2        0.0331
     21    H      -68.2300  -92.1550   -7.6220 H       2  LIG2        0.0269
     22    H      -69.4440  -91.0710   -8.1980 H       2  LIG2        0.0269
     23    H      -71.2930  -87.0010   -7.1920 H       2  LIG2        0.0301
     24    H      -67.6350  -85.8660   -7.9030 H       2  LIG2        0.0269
     25    H      -69.0400  -86.3090   -8.8600 H       2  LIG2        0.0269
     26    H      -66.6040  -90.2030   -7.5290 H       2  LIG2        0.0293
     27    H      -67.0380  -90.8210   -9.0930 H       2  LIG2        0.0293
     28    H      -70.5260  -92.1590   -3.9630 H       2  LIG2        0.0235
     29    H      -71.1890  -90.5760   -3.5570 H       2  LIG2        0.0235
     30    H      -69.4610  -90.8650   -3.4380 H       2  LIG2        0.0235
     31    H      -71.6920  -92.0100   -6.3060 H       2  LIG2        0.0235
     32    H      -71.4080  -90.6540   -7.3680 H       2  LIG2        0.0235
     33    H      -72.3260  -90.4200   -5.9020 H       2  LIG2        0.0235
     34    H      -70.0390  -85.0310   -7.1090 H       2  LIG2        0.0268
     35    H      -68.9300  -85.6600   -5.8990 H       2  LIG2        0.0268
     36    H      -70.2670  -87.0790   -4.3130 H       2  LIG2        0.0233
     37    H      -71.7140  -87.8950   -4.9060 H       2  LIG2        0.0233
     38    H      -71.6200  -86.1400   -4.9260 H       2  LIG2        0.0233
     39    H      -69.7140  -89.3240   -9.7270 H       2  LIG2        0.0257
     40    H      -68.3010  -89.5110  -10.7410 H       2  LIG2        0.0257
     41    H      -68.9140  -87.9130  -10.3940 H       2  LIG2        0.0257
     42    H      -66.0050  -88.1590   -8.4340 H       2  LIG2        0.2102
@<TRIPOS>BOND
     1    40    16    1
     2    41    16    1
     3    16    39    1
     4    16     9    1
     5     1     9    1
     6     1    42    1
     7    27    11    1
     8    25    10    1
     9     9    11    1
    10     9     6    1
    11    11     7    1
    12    11    26    1
    13    22     7    1
    14    24    10    1
    15    10     6    1
    16    10    14    1
    17    19     5    1
    18    21     7    1
    19     7     4    1
    20     6     5    1
    21     6    20    1
    22    32    13    1
    23    23     8    1
    24    34    14    1
    25     5     8    1
    26     5     2    1
    27    14     8    1
    28    14    35    1
    29     8    15    1
    30    13    31    1
    31    13    33    1
    32    13     3    1
    33     4     2    1
    34     4     3    1
    35     4    18    1
    36     2     3    1
    37     2    17    1
    38     3    12    1
    39    15    38    1
    40    15    37    1
    41    15    36    1
    42    12    28    1
    43    12    29    1
    44    12    30    1
@<TRIPOS>MOLECULE
11996452_11_run_13.pdb
 42 44 0 0 0
SMALL
GASTEIGER

@<TRIPOS>ATOM
      1    O      -72.0400  -90.4940  -11.3880 O.3     2  LIG2       -0.3886
      2    C      -70.0010  -88.9690   -7.6020 C.3     2  LIG2       -0.0289
      3    C      -69.9830  -87.5850   -6.9790 C.3     2  LIG2       -0.0284
      4    C      -71.2600  -88.0900   -7.6170 C.3     2  LIG2       -0.0319
      5    C      -69.3330  -89.3110   -8.9590 C.3     2  LIG2       -0.0294
      6    C      -70.2490  -90.2380   -9.8030 C.3     2  LIG2       -0.0090
      7    C      -71.8180  -87.5740   -8.9640 C.3     2  LIG2       -0.0468
      8    C      -67.9380  -89.9990   -8.8900 C.3     2  LIG2       -0.0404
      9    C      -71.2930  -89.4990  -10.7080 C.3     2  LIG2        0.0664
     10    C      -69.2820  -91.2010  -10.5160 C.3     2  LIG2       -0.0471
     11    C      -72.3480  -88.6910   -9.8920 C.3     2  LIG2       -0.0237
     12    C      -69.9490  -87.5280   -5.4410 C.3     2  LIG2       -0.0593
     13    C      -69.1660  -86.4320   -7.6090 C.3     2  LIG2       -0.0593
     14    C      -68.1210  -91.3750   -9.5410 C.3     2  LIG2       -0.0498
     15    C      -67.2810  -90.0780   -7.4950 C.3     2  LIG2       -0.0621
     16    C      -70.6820  -88.6140  -11.8240 C.3     2  LIG2       -0.0358
     17    H      -70.0380  -89.8330   -6.9370 H       2  LIG2        0.0312
     18    H      -72.0700  -88.3280   -6.9260 H       2  LIG2        0.0309
     19    H      -69.1740  -88.3960   -9.5230 H       2  LIG2        0.0310
     20    H      -70.8200  -90.8640   -9.1120 H       2  LIG2        0.0331
     21    H      -72.6500  -86.9090   -8.7340 H       2  LIG2        0.0269
     22    H      -71.1060  -86.9530   -9.5040 H       2  LIG2        0.0269
     23    H      -67.2520  -89.4330   -9.5230 H       2  LIG2        0.0301
     24    H      -69.7540  -92.1580  -10.7440 H       2  LIG2        0.0269
     25    H      -68.9180  -90.7860  -11.4550 H       2  LIG2        0.0269
     26    H      -72.9350  -89.3760   -9.2760 H       2  LIG2        0.0293
     27    H      -73.0630  -88.2400  -10.5830 H       2  LIG2        0.0293
     28    H      -70.3780  -86.5970   -5.0730 H       2  LIG2        0.0235
     29    H      -68.9260  -87.5960   -5.0700 H       2  LIG2        0.0235
     30    H      -70.5110  -88.3460   -4.9870 H       2  LIG2        0.0235
     31    H      -69.5570  -85.4660   -7.2900 H       2  LIG2        0.0235
     32    H      -69.1600  -86.4230   -8.6960 H       2  LIG2        0.0235
     33    H      -68.1240  -86.4860   -7.2930 H       2  LIG2        0.0235
     34    H      -67.2180  -91.7080  -10.0560 H       2  LIG2        0.0268
     35    H      -68.3660  -92.1320   -8.7940 H       2  LIG2        0.0268
     36    H      -67.8660  -90.6830   -6.8020 H       2  LIG2        0.0233
     37    H      -67.1630  -89.0860   -7.0590 H       2  LIG2        0.0233
     38    H      -66.2890  -90.5270   -7.5590 H       2  LIG2        0.0233
     39    H      -70.0820  -87.7950  -11.4290 H       2  LIG2        0.0257
     40    H      -71.4600  -88.1590  -12.4410 H       2  LIG2        0.0257
     41    H      -70.0460  -89.1820  -12.5020 H       2  LIG2        0.0257
     42    H      -72.4260  -91.0840  -10.7360 H       2  LIG2        0.2102
@<TRIPOS>BOND
     1    41    16    1
     2    40    16    1
     3    16    39    1
     4    16     9    1
     5    25    10    1
     6     1    42    1
     7     1     9    1
     8    24    10    1
     9     9    11    1
    10     9     6    1
    11    27    11    1
    12    10     6    1
    13    10    14    1
    14    34    14    1
    15    11    26    1
    16    11     7    1
    17     6    20    1
    18     6     5    1
    19    14     8    1
    20    14    35    1
    21    23     8    1
    22    19     5    1
    23    22     7    1
    24     7    21    1
    25     7     4    1
    26     5     8    1
    27     5     2    1
    28     8    15    1
    29    32    13    1
    30     4     2    1
    31     4     3    1
    32     4    18    1
    33    13    33    1
    34    13    31    1
    35    13     3    1
    36     2     3    1
    37     2    17    1
    38    38    15    1
    39    15    37    1
    40    15    36    1
    41     3    12    1
    42    12    28    1
    43    12    29    1
    44    12    30    1
